23
0 1
C        -0.585378    0.140084   -0.000035
C        -1.512365    1.251823    0.000001
C        -1.038892   -1.232701   -0.000139
C        -2.865580    1.282437    0.000053
C        -2.294471   -1.741749   -0.000120
C        -3.822900    0.224615    0.000083
C        -3.570810   -1.103089    0.000007
C         0.772820    0.432004    0.000005
C         1.187562    1.795710    0.000097
N         1.474976    2.910189    0.000171
C         1.860949   -0.562299   -0.000029
O         1.751098   -1.768515   -0.000106
O         3.056691    0.042275    0.000038
C         4.196530   -0.818275    0.000001
H         4.196454   -1.450182   -0.887955
H         5.057854   -0.156099   -0.000044
H         4.196531   -1.450148    0.887983
H        -0.239536   -1.958855   -0.000235
H        -2.339181   -2.826302   -0.000208
H        -4.426584   -1.769323    0.000032
H        -4.862406    0.533321    0.000164
H        -1.039346    2.226011   -0.000004
H        -3.295737    2.278803    0.000083
