47
0 1
C        -1.507125   -1.421365    0.833201
C        -2.712182   -0.756148    1.514493
C        -3.072291    0.515192    0.815202
C         0.707426   -1.219154   -1.275758
C        -1.689203   -1.767398   -0.646220
H        -3.571142   -1.432565    1.474058
H        -1.260632   -2.337563    1.383562
H        -0.642434   -0.758995    0.941094
H        -1.972863   -0.852351   -1.179689
H        -0.016220   -3.141545   -0.700371
H        -0.562842   -2.594008   -2.278104
C        -0.364448   -2.261406   -1.252458
C        -2.790674   -2.801586   -0.863303
H        -2.888404   -3.051609   -1.922237
H        -3.761929   -2.440570   -0.520755
H        -2.567458   -3.726102   -0.321403
C        -4.254579    0.803962    0.279342
C         1.888891   -1.312461   -0.664657
C         4.089182   -0.387818   -0.065944
C         2.910392   -0.281068   -0.691844
C        -4.505192    2.103780   -0.395268
O        -3.645241    2.950256   -0.508034
C         5.155580    0.613126   -0.049736
C         6.276911    0.338524    0.631370
H         6.319403   -0.625355    1.134021
C         4.917359    1.891086   -0.804095
H         4.734587    1.685542   -1.862156
H         5.758799    2.576453   -0.737931
H         4.033662    2.406888   -0.419237
C         7.497061    1.184490    0.800018
H         8.381250    0.662456    0.421363
H         7.682728    1.383213    1.860082
H         7.431732    2.143045    0.288105
C        -5.896470    2.312247   -0.939149
H        -6.629916    2.229985   -0.132341
H        -6.133020    1.532699   -1.668644
H        -5.971027    3.291027   -1.407882
C        -2.395948   -0.471305    2.986817
H        -3.253273   -0.030447    3.498521
H        -2.124940   -1.394353    3.504342
H        -1.555772    0.222371    3.076462
H        -5.073077    0.090816    0.320309
H        -2.292135    1.272176    0.741092
H         4.293866   -1.299738    0.490710
H         2.673170    0.615384   -1.257033
H         0.480255   -0.311624   -1.834012
H         2.121440   -2.213483   -0.099726
