35
0 1
C         0.194598    1.436981    1.313328
N        -0.315486    0.104183    1.024350
C         0.356475   -1.046229    1.606406
C         1.392691   -1.716862    0.701481
C         2.458330   -0.731875    0.263187
C         2.075705    0.297969   -0.863320
C         2.033484    1.771485   -0.491716
C         0.694494    2.222932    0.094543
C         3.562930   -1.168902   -0.677183
C         3.282893   -0.249418   -1.599499
C        -1.522071   -0.054037    0.362949
C        -1.965895   -1.322712   -0.050357
C        -3.181632   -1.480925   -0.694146
C        -3.999173   -0.392713   -0.963731
C        -3.567983    0.865781   -0.571327
C        -2.355883    1.040975    0.076453
H        -0.577344    2.024171    1.825281
H         1.010262    1.325359    2.029453
H         0.859928   -0.707634    2.516683
H        -0.393412   -1.772553    1.927956
H         1.849569   -2.543452    1.257224
H         0.912844   -2.152216   -0.180108
H         2.232262    2.371802   -1.385681
H         2.849172    1.989391    0.207876
H         0.772193    3.275464    0.385901
H        -0.065749    2.177599   -0.689069
H        -1.352563   -2.195816    0.117707
H        -3.487123   -2.476159   -0.996241
H        -4.945829   -0.521860   -1.472291
H        -4.184738    1.735260   -0.768272
H        -2.067061    2.039993    0.366945
H         2.858988   -0.213853    1.143032
H         1.136694    0.012665   -1.348131
H         3.732186    0.014000   -2.550198
H         4.314350   -1.946163   -0.600912
