19
0 1
C         1.628561    1.806853    0.000044
C         2.454424    0.762913    0.000096
C         1.956181   -0.633518    0.000097
O         2.735686   -1.561310    0.000142
C         0.479691   -0.834174    0.000034
C        -0.381034    0.281305   -0.000020
C         0.161245    1.639065   -0.000017
O        -0.562825    2.632326   -0.000068
C        -1.770510    0.078168   -0.000078
C        -2.273588   -1.228237   -0.000082
C        -1.412182   -2.302301   -0.000029
C        -0.028003   -2.115248    0.000030
O        -2.642919    1.086310   -0.000128
H        -3.347824   -1.360455   -0.000127
H        -1.816037   -3.307443   -0.000033
H         0.656706   -2.952457    0.000072
H        -2.133760    1.926963   -0.000114
H         1.980471    2.831577    0.000043
H         3.532184    0.874254    0.000141
