10
0 1
C         0.388462    1.261664   -0.004010
C         1.606777    0.731866    0.127154
C         0.388462   -1.261664   -0.004010
C         1.606777   -0.731866    0.127154
S        -0.813518    0.000000   -0.375567
O        -2.017997    0.000000    0.522143
H         0.094053   -2.298912   -0.044886
H         2.514646   -1.313267    0.221983
H         0.094053    2.298912   -0.044886
H         2.514646    1.313267    0.221983
