17
0 1
C        -1.413589   -0.748051   -0.480381
C        -1.041436    0.459014   -0.059900
H        -1.856830   -1.258849   -1.315577
N         0.435846   -1.927177   -0.482446
N         1.128023   -1.098278   -0.077203
N         1.103837    0.059722    0.398610
C         2.243451    0.931062    0.153962
H         2.466279    1.036220   -0.912444
H         1.982901    1.907660    0.557076
H         3.135501    0.577370    0.675605
C        -1.717062   -0.408991    0.949258
H        -2.742008   -0.175317    1.244939
H        -1.126631   -0.862783    1.743729
C        -0.994048    1.890100   -0.438471
H        -0.458302    2.488588    0.299472
H        -0.524062    2.027687   -1.414120
H        -2.014688    2.280743   -0.498214
