20
0 1
C        -0.598027   -1.464816   -0.034852
C         0.598026   -1.464816    0.034852
C        -1.942983   -0.912968   -0.127282
H        -2.309411   -0.995612   -1.155148
H        -2.659623   -1.438631    0.507961
C         1.942982   -0.912968    0.127282
H         2.659622   -1.438631   -0.507961
H         2.309411   -0.995613    1.155148
C        -1.847392    0.573052    0.284162
H        -2.795449    1.056536    0.030820
H        -1.751944    0.628747    1.372593
C        -0.688103    1.359387   -0.362430
H        -0.557482    1.021677   -1.395658
H        -1.016436    2.399357   -0.433478
C         1.847393    0.573051   -0.284161
H         2.795450    1.056534   -0.030819
H         1.751945    0.628747   -1.372593
C         0.688104    1.359387    0.362430
H         1.016437    2.399357    0.433477
H         0.557482    1.021678    1.395658
