28
0 1
C        -0.207369    1.876458   -0.791156
C         0.039485    1.864940    0.601155
C        -0.124109    3.052045    1.301946
C        -0.504556    4.222573    0.655952
C        -0.729387    4.223303   -0.713359
C        -0.583536    3.050194   -1.437013
H         0.057966    3.064134    2.370850
H        -0.620992    5.137017    1.224991
H        -1.022532    5.136156   -1.216997
H        -0.765382    3.033182   -2.504164
C        -0.079157    0.596970   -1.402509
C         0.079157   -0.596970   -1.402509
C         0.207369   -1.876458   -0.791156
C         0.583536   -3.050194   -1.437013
C        -0.039485   -1.864940    0.601155
C         0.729387   -4.223303   -0.713359
H         0.765382   -3.033182   -2.504164
C         0.124109   -3.052045    1.301946
C         0.504556   -4.222573    0.655952
H         1.022532   -5.136156   -1.216997
H        -0.057966   -3.064134    2.370850
H         0.620992   -5.137017    1.224991
C        -0.504556   -0.598833    1.284871
H        -1.432783   -0.273817    0.808638
H        -0.758536   -0.843367    2.317362
C         0.504556    0.598833    1.284871
H         1.432783    0.273817    0.808638
H         0.758536    0.843367    2.317362
