22
1 1
C        -2.603809   -0.009870   -0.000014
N        -1.424209   -0.439239   -0.000017
N        -0.395732   -1.057837   -0.000025
C         0.848662   -0.418140   -0.000004
C         1.946293   -1.279067   -0.000017
C         1.002518    0.973507    0.000026
C         3.220403   -0.739589    0.000002
H         1.779111   -2.348508   -0.000040
C         2.276852    1.494844    0.000044
H         0.139132    1.627702    0.000035
C         3.381681    0.639313    0.000032
H         4.084749   -1.390157   -0.000007
H         2.423949    2.566875    0.000067
H         4.379123    1.061277    0.000046
C        -3.296691    0.254681   -1.301977
H        -2.670185    0.013407   -2.157687
H        -4.207505   -0.347537   -1.337877
H        -3.593125    1.304501   -1.348592
C        -3.296706    0.254624    1.301953
H        -2.670204    0.013327    2.157659
H        -3.593155    1.304438    1.348604
H        -4.207512   -0.347608    1.337822
