20
0 2
N         0.991017    0.287654   -0.189970
C         1.741537   -0.497193    0.453023
C         3.237391   -0.433576    0.386998
C         3.797007    0.607281   -0.506192
H         3.595342   -1.435511    0.100776
H         3.608578   -0.314382    1.417113
H         4.868777    0.716981   -0.599692
H         3.139091    1.254458   -1.066655
C        -0.406770    0.132231   -0.105188
C        -1.187733    1.266420    0.108984
C        -2.565664    1.156791    0.195061
C        -3.183979   -0.078465    0.038045
C        -2.410790   -1.204137   -0.205535
C        -1.028083   -1.103562   -0.277047
H        -0.426858   -1.978398   -0.493794
H        -4.262554   -0.159220    0.092727
H        -2.884983   -2.167875   -0.348491
H        -0.694729    2.225002    0.211961
H        -3.163119    2.042410    0.375712
H         1.325842   -1.271793    1.111242
