21
0 2
C         2.089498   -0.664275    1.019870
C         2.247724   -0.283991   -0.431686
C         1.196267    0.400175    0.475718
H         2.879437   -0.360974    1.695662
H         1.652126   -1.628762    1.245378
C         3.402613    0.458393   -0.892678
H         3.957252    1.091177   -0.210881
H         3.689960    0.450554   -1.934464
H         1.807705   -0.969689   -1.146659
H        -2.536368   -2.231435   -0.459159
C        -2.141001   -1.240536   -0.269362
C        -0.786405   -1.079226   -0.021769
H        -0.144357   -1.952454   -0.022839
C        -0.249325    0.184684    0.225890
C        -1.112714    1.279478    0.218807
H        -0.713385    2.269439    0.409159
C        -2.468938    1.120250   -0.025942
H        -3.120144    1.986312   -0.024141
C        -2.990182   -0.141805   -0.272178
H        -4.048525   -0.269417   -0.463748
H         1.451079    1.416373    0.751674
