20
0 2
N         0.962395   -0.733278    0.081227
C         1.888121   -0.013095   -0.497728
C         3.327538   -0.378812   -0.368942
H         1.648541    0.828655   -1.148645
C         3.251364    0.639604    0.694688
H         3.942012   -0.123473   -1.228094
H         3.474012   -1.399811   -0.030600
H         3.469644    1.678670    0.492733
H         3.001787    0.346513    1.702996
C        -0.363254   -0.307971    0.034635
C        -1.355585   -1.290717    0.126262
C        -2.695157   -0.947651    0.084601
C        -3.075676    0.385909   -0.020519
C        -2.099368    1.371883   -0.079558
C        -0.755202    1.034592   -0.053135
H        -0.005565    1.815836   -0.064350
H        -4.124525    0.654963   -0.041683
H        -2.387072    2.415208   -0.136216
H        -1.042592   -2.322972    0.220221
H        -3.449687   -1.723099    0.143234
