21
0 2
C         2.113761    0.770809   -0.853500
C         2.344265    0.268404    0.528677
C         1.132626   -0.321914   -0.686329
H         2.920636    0.578122   -1.554259
H         1.721298    1.778192   -0.947174
C         3.383718   -0.579891    0.889821
H         4.066210   -0.977395    0.148074
H         3.493542   -0.919805    1.910371
H         1.751145    0.726623    1.310291
H        -3.075692   -2.026131    0.056149
C        -2.445160   -1.145087    0.036394
C        -1.108804   -1.266759   -0.299496
H        -0.699151   -2.241655   -0.538932
C        -0.265405   -0.146341   -0.340152
C        -0.820344    1.101781   -0.023267
H        -0.203229    1.991707   -0.044140
C        -2.157917    1.219410    0.317863
H        -2.563885    2.195063    0.557959
C        -2.979651    0.099874    0.349484
H        -4.025280    0.196006    0.614367
H         1.431869   -1.302446   -1.029673
