11
0 2
C        -0.799023    0.725956   -0.154370
C        -1.177632   -0.700494   -0.103732
C         0.421039    0.157329    0.483355
C         1.592857   -0.120889   -0.182625
H        -1.381781    1.400937    0.466945
H        -0.635567    1.136582   -1.147877
H        -0.980582   -1.344862   -0.946639
H        -1.738698   -1.097892    0.729582
H         0.393224    0.052483    1.561139
H         2.431768   -0.572689    0.329024
H         1.688193    0.054032   -1.247946
