20
0 2
N        -0.965899   -0.593687    0.000026
C        -1.983864    0.362875   -0.000073
C        -3.250506   -0.026981    0.743210
H        -1.743568    1.420867   -0.000235
C        -3.250560   -0.027192   -0.743148
H        -3.771448    0.764336    1.266523
H        -3.217101   -0.980774    1.250876
H        -3.771542    0.763975   -1.266647
H        -3.217191   -0.981131   -1.250544
C         0.331905   -0.230764    0.000007
C         1.275490   -1.291750    0.000081
C         2.630052   -1.045028    0.000068
C         3.104249    0.267170   -0.000014
C         2.199275    1.327430   -0.000082
C         0.838948    1.096332   -0.000073
H         0.163284    1.939917   -0.000121
H         4.169464    0.462461   -0.000022
H         2.567042    2.346784   -0.000141
H         0.883056   -2.300674    0.000146
H         3.329360   -1.872502    0.000124
