20
0 2
C        -2.514904    0.395767   -0.038349
C        -1.299202    1.297133   -0.032222
C        -0.428377   -0.535690   -0.349076
C        -1.775274   -0.914489    0.248799
C         0.780894   -0.760492    0.264925
C         2.105914   -0.489791   -0.371264
C         2.817797    0.725134    0.234902
H        -2.968005    0.371847   -1.032088
H        -3.297615    0.660257    0.677483
H        -0.925550    1.611811    0.936891
H        -1.132753    2.011465   -0.831878
H        -0.418532   -0.453453   -1.434984
H        -1.663829   -1.069309    1.325142
H        -2.217047   -1.819398   -0.177250
H         0.785959   -1.020077    1.322067
H         1.969740   -0.336254   -1.445857
H         2.753714   -1.367567   -0.261795
H         2.220808    1.629871    0.102145
H         3.791689    0.887028   -0.233071
H         2.980336    0.588346    1.306908
