12
0 2
C         1.112178   -0.641077    0.150564
C         0.914003    0.858421    0.133686
C        -0.278441   -0.885002   -0.419917
H         1.280700   -1.118846    1.122968
H         1.912431   -0.948769   -0.524986
C        -0.448435    0.936082   -0.216109
H         1.669808    1.600309   -0.076529
C        -1.283823   -0.159159    0.377184
H        -0.497993   -1.439141   -1.320566
H        -1.255285   -0.273464    1.463252
H        -2.296825   -0.201488   -0.012741
H        -0.905729    1.725809   -0.803855
