21
0 2
C        -0.024684   -0.433659    0.311154
C         0.970015   -1.536191   -0.026917
C         2.145371   -0.601064   -0.333308
H         0.659104   -2.081645   -0.920231
H         1.126806   -2.260722    0.776339
C         1.332046    0.638835   -0.685253
H         2.817118   -0.933367   -1.127669
H         2.750376   -0.411498    0.556040
S        -1.584896   -0.603064   -0.510536
C        -2.404587    0.957728   -0.094238
H        -3.307093    1.007207   -0.701709
H        -1.761183    1.800606   -0.345481
H        -2.684754    1.001768    0.956741
C        -0.043144    0.023689    1.741533
H        -0.608304   -0.680860    2.361585
H        -0.487975    1.013507    1.849940
H         0.973539    0.080179    2.135167
C         1.628774    1.901405   -0.206867
H         0.828150    0.586249   -1.647174
H         2.286082    2.039496    0.644204
H         1.143727    2.783650   -0.605798
