24
0 2
C        -2.393559    1.630477    1.002064
C        -1.987098    0.267380    0.637007
H        -1.970944    2.139640    1.858422
H        -3.039401    2.199053    0.342352
C        -2.967440   -0.656525   -0.128622
C        -0.982148    0.069485   -0.568462
H        -1.575117   -0.260256    1.501295
C        -1.779261   -1.199489   -0.947021
H        -1.351027   -2.093049   -0.490253
H        -1.928147   -1.389472   -2.010013
H        -3.648077   -0.068225   -0.748202
H        -3.551928   -1.361278    0.463043
H         3.354842    1.708518   -0.957344
C         2.705850    0.950232   -0.535439
C         1.345239    0.974811   -0.811199
H         0.939739    1.754092   -1.447140
C         0.486633    0.012917   -0.284456
C         1.030519   -0.978750    0.531973
H         0.386054   -1.739268    0.958062
C         2.388355   -1.008607    0.810118
H         2.790466   -1.788769    1.445696
C         3.232759   -0.043065    0.276619
H         4.293918   -0.066504    0.493113
H        -1.179472    0.852321   -1.304518
