31
0 2
C        -0.011374    0.856638    0.345900
C         0.071638    2.328151   -0.074480
C         0.063546    1.915175    1.395219
H        -0.830494    2.134738    1.965008
H         0.994429    2.040108    1.933102
C         1.261719    2.886901   -0.688041
H         1.185556    3.712071   -1.381836
H         2.243100    2.494845   -0.457826
H        -0.867202    2.739959   -0.424999
H         2.804856   -1.593650   -2.422362
C         2.570004   -1.285910   -1.410337
C         1.495621   -0.442681   -1.178571
H         0.892727   -0.094642   -2.008826
C         1.179879   -0.029217    0.114286
C         1.961407   -0.485071    1.169486
H         1.725283   -0.176484    2.180933
C         3.038443   -1.333320    0.941913
H         3.636024   -1.680165    1.776615
C         3.346745   -1.734820   -0.348677
H         4.187201   -2.394153   -0.528902
H        -3.752826   -0.330289   -2.182469
C        -3.219033   -0.424189   -1.244188
C        -2.026988    0.263481   -1.056530
H        -1.636515    0.892166   -1.848314
C        -1.327399    0.158179    0.140771
C        -1.844066   -0.652163    1.149012
H        -1.303359   -0.743417    2.084316
C        -3.033988   -1.339361    0.966227
H        -3.423694   -1.964071    1.761205
C        -3.725922   -1.227465   -0.233347
H        -4.656481   -1.762995   -0.377505
