41
0 2
C         0.718565    2.091541    1.523619
C         0.293386    3.487852    1.076613
C         0.150272    3.478254   -0.448566
H        -0.673315    3.741769    1.521743
H         1.008877    4.246028    1.403665
C        -0.733078    2.352410   -0.865699
H         1.134201    3.344278   -0.906282
H        -0.252511    4.430405   -0.811714
C        -0.201439    1.045751    0.950242
H         0.679910    2.022591    2.616575
H         1.752860    1.898920    1.235848
C         0.153292   -0.216019    0.540862
H        -1.240061    1.179621    1.237330
H        -2.070173   -0.670131    2.045144
C        -2.004984   -1.324777    1.184740
C        -0.890539   -1.240113    0.341420
C        -0.816129   -2.138325   -0.730031
H         0.039425   -2.100191   -1.392888
C        -1.823299   -3.061578   -0.962556
H        -1.745226   -3.737811   -1.805834
C        -2.929331   -3.120920   -0.124545
H        -3.714456   -3.845262   -0.304047
C        -3.011425   -2.249204    0.953761
H        -3.859090   -2.297957    1.627306
H         3.842541   -3.016269    0.717950
C         3.413894   -2.104062    0.319912
C         2.116741   -1.751713    0.655375
H         1.535291   -2.391196    1.308840
C         1.539999   -0.574853    0.168280
C         2.304125    0.224213   -0.684689
H         1.869287    1.124888   -1.097851
C         3.602068   -0.128835   -1.026030
H         4.173016    0.505097   -1.694362
C         4.164592   -1.292786   -0.522295
H         5.177909   -1.569314   -0.787166
O        -2.061280    2.619031   -0.745614
H        -0.469098    1.727294   -1.717746
C        -2.921002    1.595283   -1.218307
H        -2.813592    0.685259   -0.623307
H        -2.701689    1.364585   -2.266197
H        -3.938110    1.972435   -1.134729
