37
0 2
C         1.916447   -1.622219   -1.113073
C         2.433087   -2.910935   -0.476953
C         2.127206   -2.844686    1.021462
H         3.501944   -3.041414   -0.664835
H         1.921198   -3.774894   -0.915434
C         0.670493   -2.584189    1.212928
H         2.715715   -2.041363    1.473748
H         2.432805   -3.778365    1.510750
C         0.466694   -1.401946   -0.775568
H         2.031738   -1.665565   -2.201602
H         2.519163   -0.782948   -0.762901
H         0.334391   -1.884132    1.967272
H        -0.021932   -3.389785    0.989902
C        -0.104674   -0.202375   -0.439450
H        -0.200839   -2.177655   -1.136186
H         1.478200    1.207442   -2.139451
C         1.499078    1.604736   -1.131548
C         0.729993    0.992030   -0.143795
C         0.750791    1.529887    1.143765
H         0.144513    1.072556    1.916978
C         1.532614    2.636060    1.439599
H         1.542465    3.034571    2.447195
C         2.298474    3.234476    0.447137
H         2.906038    4.101684    0.676103
C         2.276298    2.717606   -0.840503
H         2.863563    3.183427   -1.622995
H        -4.349920   -1.918998    0.362465
C        -3.744724   -1.044237    0.154960
C        -2.374288   -1.181118    0.006230
H        -1.927173   -2.159865    0.115860
C        -1.559286   -0.071507   -0.254339
C        -2.177838    1.182680   -0.340113
H        -1.573539    2.059460   -0.534384
C        -3.548848    1.317836   -0.194013
H        -4.000800    2.299389   -0.275236
C        -4.342169    0.205398    0.053402
H        -5.413613    0.311468    0.171985
