37
0 2
C        -1.629805   -1.811457    1.304634
C        -2.194389   -2.814945    0.288336
C        -2.355586   -2.218825   -1.124213
H        -3.168114   -3.168701    0.640024
H        -1.541122   -3.692484    0.234729
C        -3.368368   -1.131418   -1.196580
H        -2.640677   -3.034681   -1.799069
H        -1.384761   -1.850572   -1.466081
C        -0.193292   -1.488692    1.026756
H        -1.708609   -2.243193    2.307469
H        -2.247204   -0.913677    1.293943
C         0.316163   -0.355479    0.533667
H         0.021826    0.926536   -1.809240
C        -0.561781    1.387858   -1.021084
C        -0.514818    0.850801    0.265516
C        -1.250478    1.469358    1.273393
H        -1.200512    1.076371    2.281723
C        -2.035153    2.581398    0.998657
H        -2.601116    3.050191    1.794840
C        -2.091629    3.093440   -0.289558
H        -2.705425    3.959568   -0.505391
C        -1.349034    2.494108   -1.299395
H        -1.383482    2.890448   -2.307187
H         4.327740    1.973878    0.364698
C         3.808435    1.043998    0.165450
C         2.453180    0.942206    0.438603
H         1.920731    1.793478    0.844962
C         1.762558   -0.248269    0.204375
C         2.464720   -1.323360   -0.342149
H         1.937065   -2.241330   -0.570472
C         3.820024   -1.222009   -0.619006
H         4.344971   -2.067022   -1.048620
C         4.498798   -0.038761   -0.362772
H         5.556405    0.042541   -0.582648
H        -3.082382   -0.089406   -1.246523
H        -4.422710   -1.364768   -1.102483
H         0.500104   -2.306876    1.207544
