37
0 2
C         0.836829    2.131567    1.115284
C         1.864072    3.256439    0.871988
C         2.412939    3.023653   -0.556623
H         2.660625    3.222234    1.617004
H         1.400329    4.241033    0.954487
C         1.921503    1.628533   -0.953490
H         3.499151    3.111306   -0.608707
H         2.000958    3.767961   -1.243023
C         0.544827    1.539177   -0.283254
H        -0.070306    2.475258    1.614609
H         1.270904    1.346842    1.740689
C        -0.123937    0.195103   -0.225915
H         1.371219   -1.057043   -2.119462
C         1.444685   -1.534627   -1.149939
C         0.724045   -1.012042   -0.075309
C         0.821011   -1.653287    1.161021
H         0.257183   -1.265547    2.001404
C         1.620830   -2.775834    1.321275
H         1.685614   -3.255993    2.290504
C         2.332523   -3.283952    0.243493
H         2.954596   -4.162343    0.365974
C         2.238578   -2.661494   -0.993971
H         2.784274   -3.056119   -1.842860
H        -3.983479   -2.319855   -0.150358
C        -3.540148   -1.331195   -0.127382
C        -2.167420   -1.202238   -0.179735
H        -1.551991   -2.089075   -0.248568
C        -1.542369    0.070551   -0.160911
C        -2.398278    1.197958   -0.084934
H        -1.976289    2.193024   -0.054768
C        -3.770617    1.056666   -0.029540
H        -4.394586    1.940537    0.034316
C        -4.357161   -0.205769   -0.050406
H        -5.434134   -0.310857   -0.007919
H        -0.110108    2.236195   -0.815117
H         2.584704    0.863334   -0.543224
H         1.879879    1.483852   -2.034897
