31
0 2
C        -0.077719    0.738151    0.326479
C        -0.073563    2.362535   -0.448045
C        -0.042731    2.056023    1.010012
H        -0.908565    2.339556    1.598893
H         0.892635    2.301937    1.502381
C         1.036749    2.766089   -1.187277
H         2.029266    2.774250   -0.755631
H         0.942286    2.998170   -2.239419
H        -1.051292    2.465559   -0.900301
H         3.173687   -1.493271   -2.141215
C         2.836221   -1.161330   -1.166561
C         1.651153   -0.450905   -1.052973
H         1.063886   -0.225647   -1.934861
C         1.201598   -0.008329    0.190334
C         1.971984   -0.288981    1.315981
H         1.633650    0.047948    2.289170
C         3.158604   -1.001427    1.206481
H         3.742612   -1.215002    2.093772
C         3.593987   -1.439532   -0.035970
H         4.521056   -1.993026   -0.124341
H        -2.540406   -3.076925   -0.615453
C        -2.562129   -2.026615   -0.349575
C        -1.368148   -1.341107   -0.193668
H        -0.434776   -1.868715   -0.332101
C        -1.349764    0.015890    0.156743
C        -2.587783    0.648237    0.349503
H        -2.630105    1.694114    0.625177
C        -3.779210   -0.038628    0.188657
H        -4.717903    0.480464    0.342692
C        -3.777003   -1.381881   -0.163705
H        -4.709510   -1.918546   -0.287258
