31
0 2
C        -2.412098    0.400744    0.008976
C        -1.408695    1.394019    0.045682
C        -0.066246    1.255040   -0.509080
H        -1.642857    2.325146    0.553092
C         0.865524    2.429970   -0.567641
H         0.054520    0.524004   -1.299537
C         1.158858    1.343839    0.419074
H         0.500334    3.372667   -0.178506
H         1.515280    2.522794   -1.428474
C         2.282214    0.389887    0.251996
H         0.918766    1.568975    1.451219
C        -2.200013   -0.888737   -0.536914
C        -3.697117    0.676219    0.538596
C        -4.700814   -0.268449    0.513862
C        -4.469809   -1.529017   -0.035859
C        -3.212470   -1.827234   -0.556210
C         2.805513    0.063175   -0.999621
C         2.830128   -0.225987    1.376194
C         3.868364   -1.138483    1.257543
C         4.378878   -1.456129    0.007129
C         3.841366   -0.850425   -1.120936
H         2.404322    0.524602   -1.894699
H         2.435004    0.014624    2.356833
H         4.278734   -1.603263    2.146166
H         5.189145   -2.168408   -0.088683
H         4.232776   -1.089115   -2.102786
H        -3.022733   -2.807910   -0.976611
H        -1.226653   -1.150672   -0.930989
H        -3.884753    1.654860    0.966146
H        -5.674571   -0.028480    0.924363
H        -5.258816   -2.270428   -0.054278
