41
0 2
C        -1.606628   -1.218643    1.678093
C        -2.455148   -2.444290    1.343100
C        -2.624332   -2.340044   -0.173855
H        -3.405740   -2.466519    1.878684
H        -1.911784   -3.359700    1.593713
C        -1.275875   -1.839688   -0.698182
H        -3.406559   -1.612351   -0.407479
H        -2.890101   -3.278661   -0.659504
C        -0.571473   -1.163391    0.534799
H        -1.118666   -1.281435    2.652829
H        -2.225186   -0.319211    1.685552
C         0.089311    0.165594    0.285166
H         1.815580   -1.122698    1.939775
C         2.315199   -0.548648    1.169147
C         1.552032    0.201002    0.260755
C         2.246077    0.943416   -0.707978
H         1.683790    1.510472   -1.438861
C         3.629311    0.934819   -0.764586
H         4.136547    1.504343   -1.534381
C         4.365854    0.193198    0.150939
H         5.448064    0.188707    0.107726
C         3.699175   -0.545779    1.119952
H         4.261624   -1.122523    1.844605
H        -0.363724    4.762221    0.288625
C        -0.831499    3.804003    0.095379
C        -0.105461    2.644203    0.284984
H         0.913300    2.712097    0.640874
C        -0.672670    1.369314    0.060246
C        -2.024743    1.344304   -0.345055
H        -2.516502    0.401145   -0.526459
C        -2.744630    2.508538   -0.539861
H        -3.776925    2.447501   -0.864001
C        -2.156160    3.749387   -0.325692
H        -2.723344    4.659594   -0.475968
O        -0.548612   -2.961874   -1.163731
C         0.636449   -2.631222   -1.851699
H         1.043537   -3.558883   -2.251658
H         1.381607   -2.169447   -1.195666
H         0.429196   -1.942043   -2.680659
H        -1.387444   -1.137979   -1.532447
H         0.212907   -1.876079    0.790629
