28
0 1
C         0.482380   -2.720895    0.962327
C         0.378248   -1.892311   -0.070802
C        -0.901118   -1.672710   -0.812690
H        -0.729341   -1.303733   -1.821501
H        -1.525899   -2.565175   -0.842513
S        -1.971055   -0.448826   -0.000401
C        -0.919608    0.979802    0.172826
C         0.811228    3.104104    0.384480
C        -0.819144    1.873681   -0.882311
C        -0.183006    1.133748    1.338168
C         0.690762    2.206602    1.437605
C         0.055693    2.942260   -0.770187
H        -1.421205    1.729246   -1.769919
H        -0.306756    0.426287    2.147290
H         1.271801    2.345152    2.340889
H         0.148298    3.649421   -1.584681
H         1.494156    3.941170    0.466671
O        -3.040577   -0.135220   -0.939614
O        -2.272039   -0.951473    1.336120
C         1.537277   -1.089920   -0.557321
O         1.525059   -0.459496   -1.584360
O         2.591216   -1.136035    0.262364
C         3.721433   -0.356416   -0.141190
H         4.095557   -0.699004   -1.105408
H         4.468336   -0.501598    0.634370
H         3.442050    0.694290   -0.216972
H         1.418964   -2.836400    1.490042
H        -0.373236   -3.288310    1.306616
