41
0 2
C         1.981236   -0.990516   -1.509466
C         2.689104   -2.253810   -1.015745
C         2.444091   -2.388522    0.488631
H         3.757125   -2.223274   -1.243306
H         2.275921   -3.132762   -1.517827
C         0.976251   -2.349262    0.761329
H         2.927594   -1.564251    1.019588
H         2.874100   -3.321798    0.873541
C         0.569322   -0.939003   -0.988168
H         1.950838   -0.986458   -2.604499
H         2.539199   -0.102926   -1.211586
C        -0.105781    0.178569   -0.560393
H        -0.042506   -1.768856   -1.321938
H        -1.973965   -1.279763   -1.925275
C        -2.392165   -0.727882   -1.092888
C        -1.562492    0.104318   -0.329486
C        -2.160808    0.841853    0.701190
H        -1.547458    1.497908    1.305862
C        -3.515848    0.734855    0.969864
H        -3.947060    1.311055    1.780165
C        -4.319057   -0.106952    0.211536
H        -5.379045   -0.188106    0.418980
C        -3.747669   -0.834178   -0.824812
H        -4.365160   -1.478935   -1.439395
H         3.209290    2.753874    1.477680
C         2.328336    2.732533    0.846844
C         1.712125    1.520352    0.569070
H         2.118177    0.611291    0.991494
C         0.572061    1.455473   -0.234869
C         0.064698    2.656370   -0.742370
H        -0.822901    2.630898   -1.363125
C         0.679173    3.867453   -0.469697
H         0.269772    4.781731   -0.882944
C         1.816373    3.912389    0.327457
H         2.296162    4.859179    0.543657
O         0.363683   -3.516298    0.351312
C         0.421770   -1.749139    2.008863
H         0.866096   -0.775403    2.209602
H         0.609830   -2.398347    2.874925
H        -0.658649   -1.599643    1.925616
H        -0.571143   -3.484442    0.576948
