41
0 2
C        -0.357646   -2.194208   -1.378991
C        -1.460089   -3.151729   -0.937878
C        -1.658091   -2.918837    0.555959
H        -1.197084   -4.189957   -1.150551
H        -2.390164   -2.935708   -1.472655
C        -1.892083   -1.447906    0.805992
H        -0.757173   -3.221533    1.096432
H        -2.489473   -3.514568    0.947331
C        -0.693886   -0.786673   -0.956418
H        -0.232523   -2.225274   -2.466149
H         0.588486   -2.511692   -0.939010
C         0.231190    0.155525   -0.525523
H        -1.583073   -0.391138   -1.434225
H        -2.279548    1.273136   -0.419465
C        -1.474775    1.990509   -0.345896
C        -0.135587    1.568060   -0.370386
C         0.856748    2.555042   -0.260680
H         1.899136    2.268107   -0.290225
C         0.527291    3.893957   -0.132845
H         1.316303    4.632893   -0.058882
C        -0.802948    4.290438   -0.103139
H        -1.060771    5.337228    0.001670
C        -1.800018    3.328927   -0.211309
H        -2.843099    3.620608   -0.187165
H         3.762583   -0.254320    2.469560
C         3.404632   -0.408799    1.458663
C         2.110413   -0.041271    1.123834
H         1.470605    0.412849    1.870130
C         1.619903   -0.238919   -0.168507
C         2.476396   -0.788177   -1.122697
H         2.122960   -0.920435   -2.137976
C         3.775642   -1.147268   -0.793163
H         4.426038   -1.566371   -1.551574
C         4.242086   -0.965650    0.501003
H         5.255005   -1.248565    0.760471
C        -1.329172   -0.825735    2.052090
H        -1.366625    0.263229    2.009698
H        -0.293842   -1.136342    2.188566
H        -1.897363   -1.146030    2.932808
C        -3.167238   -0.968695    0.404320
N        -4.183855   -0.562524    0.037806
