45
0 2
N        -0.555135   -1.971581   -0.634371
C        -1.677268   -1.586107    0.061257
C         0.528455   -2.576867   -0.045674
O         0.485921   -3.218260    0.987684
C         1.786280   -2.443239   -0.877911
C         1.514688   -1.576279   -2.107754
H         2.127340   -3.444222   -1.148433
H         2.556089   -2.014481   -0.235406
C         0.515045   -0.491988   -1.782593
H         1.089165   -2.191673   -2.900461
H         2.444109   -1.152608   -2.492822
C         0.737193    0.547285   -0.906023
H        -0.305980   -0.389349   -2.477720
C        -0.260169    1.595615   -0.675851
C         0.070338    2.741085    0.065482
C        -1.571398    1.497078   -1.166130
C        -2.506661    2.483039   -0.913619
C        -0.865394    3.731320    0.309752
C        -2.161516    3.606364   -0.172525
H         1.074905    2.855193    0.449176
H        -0.580712    4.605958    0.882202
H        -1.876950    0.628081   -1.728317
H        -3.516047    2.368324   -1.289522
H        -2.896148    4.377007    0.026781
C         1.989852    0.592766   -0.102898
C         3.218175    0.825499   -0.717541
C         1.957421    0.395699    1.277024
C         4.390387    0.836561    0.025288
C         4.349060    0.612529    1.394429
C         3.128051    0.395122    2.019191
H         1.006222    0.231754    1.766858
H         5.264336    0.611986    1.973696
H         3.087033    0.221149    3.087499
H         3.252635    1.007206   -1.785077
H         5.337795    1.020958   -0.466808
C        -2.898119   -1.572856   -0.632480
C        -4.053356   -1.126367   -0.019884
C        -4.013802   -0.679201    1.296812
C        -1.654452   -1.151043    1.396566
C        -2.813157   -0.699696    1.999571
H        -2.905833   -1.924767   -1.657057
H        -4.989030   -1.124553   -0.566019
H        -0.727093   -1.194498    1.949003
H        -2.784499   -0.360658    3.028059
H        -4.916668   -0.321569    1.776563
