44
0 2
C         1.424982   -1.432909   -0.489288
C         1.339710   -2.940661   -0.185830
C         1.283681   -3.044957    1.336343
H         2.168361   -3.494360   -0.631654
H         0.421977   -3.339868   -0.627717
C         0.380131   -1.879272    1.744852
H         2.285333   -2.916359    1.751787
H         0.905331   -4.009649    1.679162
C         0.678601   -0.743960    0.734945
H         0.565223   -1.543992    2.766763
H        -0.666384   -2.177182    1.699992
C        -0.472590    0.169792    0.389865
C        -0.158144    1.604384    0.307240
C        -1.816084   -0.270797    0.121681
C        -2.136490   -1.598896   -0.237420
C        -2.902437    0.627968    0.238164
C        -3.439383   -1.990896   -0.480318
C        -4.485846   -1.082787   -0.365785
C        -4.203163    0.229169    0.000451
H        -5.008072    0.946383    0.109998
H        -2.711094    1.647342    0.543911
H        -1.351150   -2.329861   -0.347420
H        -3.641316   -3.016627   -0.765836
H        -5.505949   -1.393702   -0.554027
C        -0.550181    2.363220   -0.803432
C         0.579439    2.249390    1.308270
C         0.905177    3.592398    1.207003
C        -0.210039    3.701668   -0.913179
C         0.517966    4.324838    0.092393
H        -1.112943    1.884095   -1.595096
H        -0.511608    4.260842   -1.790971
H         0.883099    1.694835    2.188202
H         0.781136    5.372120    0.008230
H         1.463945    4.069891    2.003138
S         3.238057   -1.057303   -0.421470
C         3.297614    0.719659   -0.759550
H         2.985532    0.948624   -1.777216
H         4.340098    1.014191   -0.641964
H         2.694745    1.289827   -0.054450
C         0.887717   -1.080690   -1.870255
H         1.458774   -1.610023   -2.634709
H         0.956833   -0.011652   -2.072889
H        -0.161203   -1.362372   -1.967982
H         1.426463   -0.105634    1.197373
