48
0 2
C         0.048742    4.471115   -0.600573
H        -0.869458    4.738145   -1.123456
H         0.917644    4.845834   -1.134997
H         0.015928    4.876009    0.410629
O         0.203584    3.051775   -0.559269
C        -0.774564    2.378132    0.071494
O        -1.746979    2.926529    0.543115
C        -0.538622    0.937395    0.119391
C        -1.573533    0.098382    0.787091
C         0.746728    0.397240   -0.376084
H         1.257992    1.101636   -1.027290
H         0.664365   -0.579952   -0.851436
S         1.893375    0.102356    1.020569
C         3.471686   -0.090506    0.214206
C         4.395881    0.936516    0.332339
C         3.732222   -1.238070   -0.524117
C         5.620887    0.807212   -0.305467
H         4.151277    1.809509    0.923371
C         4.958827   -1.347851   -1.161440
H         2.998875   -2.031646   -0.605760
C         5.899069   -0.330800   -1.050594
H         6.358610    1.594830   -0.217197
H         5.181615   -2.234586   -1.741371
H         6.856452   -0.427359   -1.548166
O         1.941100    1.294790    1.853685
O         1.514148   -1.181636    1.627691
C        -1.828395   -1.933687   -0.786382
H        -0.948178   -1.602651   -1.340552
H        -2.513847   -2.357829   -1.522094
C        -1.414704   -3.023216    0.207317
H        -1.144261   -2.595041    1.176636
H        -2.257809   -3.692636    0.395823
C        -0.224284   -3.831442   -0.286558
H        -0.408444   -4.223474   -1.289462
H        -0.050561   -4.685802    0.376965
C        -2.503469   -0.705888   -0.167697
C        -4.369943    1.156777   -0.503910
C        -5.147667    0.062283    0.211983
H        -3.882950    1.841668    0.189183
H        -5.018973    1.733178   -1.163710
H        -5.670287    0.461972    1.081352
H        -5.871341   -0.396909   -0.459750
O         0.948031   -3.035130   -0.381336
H         1.116136   -2.625507    0.482434
S        -3.997725   -1.244331    0.785386
S        -3.112326    0.353341   -1.532985
H        -2.192771    0.758584    1.388337
H        -1.095426   -0.602007    1.475909
