43
0 2
C         2.008347   -0.897003   -1.536884
C         2.800049   -2.109857   -1.045359
C         2.584325   -2.256278    0.462715
H         3.861228   -2.011062   -1.286442
H         2.447786   -3.012102   -1.554546
C         1.117556   -2.277962    0.787449
H         3.066227   -1.420667    0.979748
H         3.073672   -3.171185    0.826973
C         0.605010   -0.918228   -0.991146
H         1.957819   -0.904927   -2.631271
H         2.519622    0.023674   -1.258525
C        -0.114723    0.165643   -0.548859
H         0.015996   -1.762454   -1.329247
H        -1.932160   -1.277376   -1.989485
C        -2.368803   -0.789095   -1.127213
C        -1.567489    0.022654   -0.316044
C        -2.183947    0.676766    0.757954
H        -1.589052    1.315108    1.399119
C        -3.533506    0.508326    1.021963
H        -3.981228    1.018377    1.866836
C        -4.310088   -0.311829    0.213721
H        -5.366002   -0.441195    0.417728
C        -3.719471   -0.956126   -0.865290
H        -4.317247   -1.584235   -1.515414
H         3.133408    2.923108    1.357483
C         2.222810    2.852465    0.774139
C         1.673897    1.606002    0.508793
H         2.160473    0.721338    0.894689
C         0.496921    1.476506   -0.232558
C        -0.115138    2.649028   -0.690296
H        -1.032303    2.574600   -1.261873
C         0.433162    3.894117   -0.430742
H        -0.057830    4.784703   -0.804974
C         1.607108    4.003279    0.304282
H         2.034912    4.976658    0.511385
C         0.366274   -3.528231    0.435345
H         0.550521   -4.308661    1.188335
H         0.660747   -3.939180   -0.532183
H        -0.711858   -3.350010    0.415581
C         0.652187   -1.612282    2.043385
H         1.134529   -0.648794    2.208358
H         0.871685   -2.242770    2.917874
H        -0.427828   -1.450319    2.027708
