52
0 2
H        -2.113426    0.422201   -2.445205
C        -2.444068   -0.437078   -1.878393
C        -3.311965   -2.608127   -0.425578
C        -2.814160   -0.262767   -0.540499
C        -2.513320   -1.680173   -2.483432
C        -2.954316   -2.774225   -1.756664
C        -3.244611   -1.375285    0.211070
H        -2.226389   -1.789030   -3.522209
H        -3.015894   -3.752486   -2.217609
H        -3.640421   -3.466542    0.149127
C        -3.565001   -1.324698    1.688076
H        -4.271004   -0.527496    1.912341
H        -4.033136   -2.276039    1.965321
C        -2.623411    1.064064    0.024611
O        -2.424623    2.096093   -0.851840
C        -2.843409    3.316029   -0.227565
C        -3.182415    2.887802    1.199824
O        -3.379935    1.479303    1.068319
H        -2.029401    4.038442   -0.276689
H        -3.709106    3.695937   -0.771496
H        -4.102684    3.321226    1.583737
H        -2.365744    3.075229    1.899147
O        -2.423207   -1.086582    2.491286
H        -1.661807   -1.556976    2.113973
C        -0.555303    0.926288    0.900850
H        -0.487423    2.006305    0.884618
H        -0.937494    0.457183    1.796927
C         0.226510    0.228564    0.025198
C         0.884295    0.913690   -1.125151
H         1.181613    0.233141   -1.918202
H         0.257149    1.705678   -1.539321
S         2.393386    1.803611   -0.646338
C         3.397501    0.538014    0.109350
C         4.824174   -1.526585    1.232826
C         4.267143   -0.191033   -0.687049
C         3.238338    0.266419    1.459940
C         3.957034   -0.779665    2.019749
C         4.984904   -1.230189   -0.115177
H         4.376831    0.064107   -1.733242
H         2.565160    0.869941    2.053694
H         3.841098   -1.009258    3.071519
H         5.673594   -1.806537   -0.720494
H         5.384335   -2.341768    1.675030
O         3.050065    2.246119   -1.873198
O         2.026886    2.771723    0.386390
C         0.383764   -1.212743    0.199637
O        -0.125410   -1.883153    1.079490
O         1.189367   -1.764851   -0.723136
C         1.427117   -3.165798   -0.588596
H         0.490949   -3.718455   -0.664505
H         1.894840   -3.378840    0.372274
H         2.096243   -3.427968   -1.403971
