24
0 2
H         0.427451   -2.595602    0.181891
C         1.060118   -1.723331    0.090711
C         2.656634    0.525403   -0.139431
C         0.444757   -0.448345   -0.063684
C         2.428836   -1.850820    0.129506
C         3.246155   -0.727051    0.018417
C         1.286572    0.703925   -0.191178
H         2.868896   -2.833665    0.250286
H         4.323846   -0.822539    0.052658
H         3.290354    1.400946   -0.228860
C         0.746156    2.096309   -0.399138
H         1.578201    2.759092   -0.635734
H         0.056397    2.114159   -1.249918
C        -0.945454   -0.404507   -0.084622
O        -1.725295   -1.517341   -0.031482
C        -3.064132   -1.097994    0.236273
C        -3.068220    0.322357   -0.301632
O        -1.713353    0.724677   -0.073994
H        -3.746495   -1.770745   -0.278160
H        -3.244693   -1.128453    1.313980
H        -3.724576    1.004271    0.233645
H        -3.276709    0.357749   -1.373777
O         0.118187    2.656750    0.746125
H        -0.737518    2.226433    0.837470
