17
0 2
C         2.792680   -0.775903   -0.162666
C         1.608636    0.157055   -0.024816
H         3.721223   -0.214006   -0.242080
H         2.671361   -1.397332   -1.052591
H         2.845532   -1.437072    0.705108
N         1.764989    1.392485   -0.020323
C         0.239862   -0.485245    0.105457
C        -0.921117    0.501437    0.210644
H         0.267023   -1.139606    0.984066
H         0.096762   -1.145565   -0.756184
C        -2.230145   -0.202699    0.394917
H        -0.954589    1.128762   -0.682620
H        -0.739220    1.171765    1.056156
C        -3.250655   -0.141619   -0.448028
H        -2.324315   -0.809694    1.293835
H        -3.199759    0.452962   -1.354502
H        -4.174510   -0.675773   -0.261987
