21
0 1
C         0.662921    0.838663    1.741350
C        -0.015758    2.081041    0.520299
C        -0.077612    1.346657   -0.690556
C        -1.048267    0.235061   -0.624015
C        -0.432028   -0.882007    0.476667
C         0.856062   -0.353805    0.989446
C         1.130030    0.961234   -1.284420
F        -1.221968   -0.417289   -1.793398
F        -1.367946   -1.028605    1.442507
C         1.830775   -0.313300   -0.002456
C         3.002658   -0.784102   -0.355715
F        -0.327316   -2.059434   -0.170049
H         1.938137    1.684827   -1.275170
F        -2.271156    0.598023   -0.176394
H         3.495598   -0.474841   -1.268958
H         3.507451   -1.513785    0.265931
H         1.089102    0.331720   -2.165946
H         1.569429    1.323002    2.087844
H        -0.123969    0.802817    2.486661
H         0.727488    2.871101    0.551326
H        -0.960453    2.364245    0.970721
