55
0 1
C        -6.228532   -0.781618   -1.287670
C        -5.197384   -1.374560   -0.335051
C        -3.899066   -0.592048   -0.319913
C        -2.753906   -1.222637    0.472451
C        -1.515441   -0.287328    0.456284
C        -0.284991   -0.850208   -0.221961
C         0.902286   -0.664464    0.357854
C         2.264978   -0.895306   -0.224073
C         2.807915    0.347961   -1.011002
C         2.772539    1.680488   -0.286948
C         1.690825    2.448260   -0.131895
C         0.367505    2.022596   -0.578403
C        -0.751221    2.077887    0.138195
C        -1.866435    1.131205   -0.156844
C        -3.205114    1.590611    0.375597
C        -3.145114   -1.570733    1.907940
C         3.247196   -1.386585    0.852516
C         4.610566   -1.699149    0.238441
C         5.192320   -0.510705   -0.520471
C         4.212232    0.030383   -1.553215
C        -0.458263   -1.397490   -1.611340
O        -3.410003    2.646271    0.903572
O        -4.210293    0.704632    0.230596
O         3.353370   -0.487932    1.945749
O         5.518763    0.557845    0.386081
H        -6.462366    0.246714   -1.009627
H        -7.155331   -1.357644   -1.269050
H        -5.858977   -0.778045   -2.316826
H        -5.601830   -1.404634    0.678683
H        -4.965882   -2.405983   -0.619586
H        -3.573593   -0.447980   -1.356978
H        -2.502697   -2.152408   -0.043210
H         2.214139   -1.701141   -0.964504
H         2.152480    0.438572   -1.882079
H         3.711530    2.025167    0.128986
H         1.772397    3.368463    0.438502
H        -3.493874   -0.686483    2.446240
H        -2.279956   -1.969740    2.440843
H        -3.934234   -2.322817    1.945736
H         2.835375   -2.303250    1.282014
H         4.507788   -2.540065   -0.454873
H         5.298150   -2.017317    1.027686
H         6.106839   -0.816738   -1.040198
H         4.122536   -0.730204   -2.335386
H         4.642599    0.918512   -2.020811
H        -1.166001   -2.229600   -1.636834
H         0.479322   -1.754524   -2.033592
H        -0.850945   -0.633236   -2.291195
H         3.906125    0.253681    1.670736
H         6.251287    0.279298    0.943122
H        -1.241054   -0.084747    1.493315
H        -1.978783    1.012600   -1.239248
H         0.347087    1.441791   -1.495855
H        -0.794738    2.613200    1.081094
H         0.920533   -0.207313    1.341960
