55
0 1
C         5.887631   -0.075463    1.460397
C         5.087660   -1.058346    0.614799
C         3.691701   -0.549480    0.291835
C         2.780146   -1.611007   -0.368282
C         1.386297   -1.072479   -0.570608
C         0.416224   -0.916469    0.331852
C        -0.768654   -0.046962   -0.029709
C        -2.146828   -0.611442    0.384103
C        -3.003287    0.390493    1.198301
C        -2.951938    1.763108    0.581973
C        -1.768464    2.259558    0.249281
C        -0.533949    1.438350    0.489829
C         0.692235    1.943396   -0.193380
C         1.909079    1.696416    0.275939
C         3.079694    1.689793   -0.628051
C         3.348729   -2.131283   -1.688236
C        -2.880476   -1.157400   -0.856423
C        -4.258496   -1.708078   -0.493841
C        -5.121629   -0.678951    0.229117
C        -4.413460   -0.145841    1.463212
C         0.543056   -1.369899    1.759532
O         3.317073    2.529888   -1.450615
O         3.891472    0.602784   -0.557627
O        -2.966189   -0.214826   -1.914366
O        -5.411129    0.444755   -0.617607
H         6.003296    0.875640    0.939108
H         6.884104   -0.464842    1.676346
H         5.392596    0.118688    2.416286
H         5.615444   -1.256935   -0.320050
H         4.988114   -2.014498    1.138121
H         3.222297   -0.234450    1.225149
H         2.750452   -2.438334    0.347994
H        -1.997729   -1.479899    1.032432
H        -2.516340    0.473431    2.178916
H        -3.871099    2.314993    0.426469
H        -1.665830    3.244794   -0.191777
H         3.497307   -1.308852   -2.390863
H         2.656209   -2.843646   -2.140135
H         4.305388   -2.636126   -1.551265
H        -2.271791   -1.969943   -1.261708
H        -4.143133   -2.580603    0.157555
H        -4.755474   -2.051918   -1.405533
H        -6.066854   -1.140007    0.536745
H        -4.350307   -0.968462    2.182308
H        -5.028615    0.631450    1.922561
H        -0.311521   -1.975251    2.070295
H         0.579459   -0.514325    2.442635
H         1.440060   -1.963933    1.926858
H        -3.575911    0.482496   -1.642892
H        -5.953611    0.147882   -1.353996
H         2.020626    1.283932    1.269941
H         0.582397    2.311551   -1.210593
H         1.204456   -0.667793   -1.563515
H        -0.787617    0.050252   -1.115748
H        -0.347814    1.385801    1.570230
