18
0 1
C         0.137150    0.000000    0.000044
C        -0.550539   -1.269758    0.000030
C        -0.550538    1.269758    0.000110
C        -1.873469   -1.547703   -0.000041
C        -1.873469    1.547703    0.000057
C        -3.006771   -0.675351   -0.000120
C        -3.006771    0.675350   -0.000078
C         1.520720    0.000000    0.000023
C         2.268638   -1.208818   -0.000031
N         2.855026   -2.198838   -0.000095
C         2.268637    1.208819    0.000040
N         2.855025    2.198838    0.000067
H        -3.972405    1.168488   -0.000140
H        -2.118398    2.604709    0.000118
H         0.104856    2.133094    0.000207
H        -3.972405   -1.168488   -0.000214
H         0.104856   -2.133095    0.000072
H        -2.118398   -2.604709   -0.000046
