55
0 1
C        -3.061077   -1.319764   -0.635460
C        -4.366533   -1.678085    0.074912
C        -5.149506   -0.450463    0.522388
C        -4.286503    0.503372    1.344281
C        -3.007237    0.883904    0.605544
C        -2.212323   -0.388173    0.238293
H        -4.990260   -2.285527   -0.584115
H        -4.135781   -2.280867    0.957943
H        -2.491966   -2.236998   -0.811107
H        -4.864147    1.400518    1.594424
H        -4.037997    0.018593    2.295320
H        -3.297345    1.368941   -0.335416
H        -2.055950   -0.916888    1.181860
H        -6.016192   -0.767950    1.112143
O        -5.617941    0.186614   -0.677995
H        -6.108635    0.982025   -0.453572
O        -3.291677   -0.763328   -1.922677
H        -4.100290   -0.236735   -1.880731
C        -0.836424   -0.104868   -0.402240
C        -2.122215    1.837873    1.354482
H        -2.463715    2.276837    2.286595
C         0.325539   -0.831809    0.251578
C         0.381328   -0.907508    1.753553
H         1.312406   -1.346413    2.106767
H        -0.431529   -1.514094    2.159625
H         0.276602    0.084355    2.201656
C         1.344399   -1.220692   -0.516646
C         1.895916    1.667618   -0.314730
C         2.711169   -1.691350   -0.078292
C         3.569232   -0.522046    0.460901
H         2.599202   -2.371040    0.772562
H         2.991716    0.003172    1.222736
C        -0.927258    2.111240    0.843390
H        -0.231086    2.790566    1.322236
C         3.405136   -2.448787   -1.209824
H         2.758941   -3.248052   -1.577135
H         3.624140   -1.777606   -2.042542
H         4.343120   -2.900124   -0.885366
C         4.881101   -0.968394    1.087343
H         4.662452   -1.774857    1.794141
H         5.519973   -1.388662    0.308021
C         5.609097    0.167916    1.794354
H         4.998695    0.588700    2.598665
H         6.544392   -0.180621    2.235933
H         5.845368    0.969340    1.093274
O         3.940837    0.409482   -0.579179
C         3.185876    1.450752   -1.009536
O         3.565434    2.081765   -1.956616
C         0.777794    1.737083   -1.025882
C        -0.580699    1.471269   -0.471181
H         0.865372    1.781946   -2.107535
H         1.856479    1.557269    0.761323
H         1.232403   -1.098183   -1.591600
H        -0.882663   -0.424916   -1.444061
H        -1.317804    1.816481   -1.203680
