23
0 1
C        -0.585378    0.140084   -0.000017
C        -1.512364    1.251823   -0.000020
C        -1.038892   -1.232701   -0.000035
C        -2.865579    1.282437    0.000000
C        -2.294470   -1.741750   -0.000019
C        -3.822900    0.224615    0.000028
C        -3.570810   -1.103089    0.000020
C         0.772820    0.432004   -0.000006
C         1.187561    1.795711    0.000009
N         1.474975    2.910190    0.000020
C         1.860949   -0.562299   -0.000004
O         1.751099   -1.768515   -0.000020
O         3.056692    0.042275    0.000018
C         4.196530   -0.818274    0.000021
H         4.196501   -1.450156   -0.887954
H         5.057854   -0.156098    0.000035
H         4.196484   -1.450173    0.887983
H        -0.239535   -1.958855   -0.000062
H        -2.339181   -2.826302   -0.000035
H        -4.426584   -1.769323    0.000041
H        -4.862406    0.533321    0.000054
H        -1.039346    2.226011   -0.000037
H        -3.295737    2.278803   -0.000004
