23
0 1
C         0.585378    0.140083    0.000024
C         1.512363    1.251823   -0.000060
C         1.038897   -1.232701    0.000224
C         2.865577    1.282441   -0.000005
C         2.294476   -1.741747    0.000341
C         3.822901    0.224621    0.000156
C         3.570815   -1.103084    0.000308
C        -0.772820    0.432000   -0.000088
C        -1.187568    1.795704   -0.000284
N        -1.474980    2.910183   -0.000443
C        -1.860951   -0.562303   -0.000025
O        -1.751094   -1.768520    0.000138
O        -3.056688    0.042274   -0.000178
C        -4.196538   -0.818268   -0.000134
H        -4.196453   -1.450267   -0.888024
H        -4.196554   -1.450045    0.887914
H        -5.057855   -0.156083   -0.000266
H         0.239543   -1.958857    0.000286
H         2.339190   -2.826299    0.000483
H         4.426590   -1.769315    0.000420
H         4.862405    0.533329    0.000157
H         1.039342    2.226009   -0.000191
H         3.295732    2.278807   -0.000100
