19
0 1
C        -1.628569    1.806847   -0.000017
C        -2.454427    0.762904   -0.000020
C        -1.956177   -0.633522   -0.000010
O        -2.735680   -1.561318   -0.000016
C        -0.479687   -0.834174   -0.000001
C         0.381033    0.281308    0.000001
C        -0.161254    1.639063   -0.000008
O         0.562810    2.632329    0.000000
C         1.770510    0.078172    0.000011
C         2.273591   -1.228229    0.000020
C         1.412187   -2.302295    0.000018
C         0.028009   -2.115245    0.000007
O         2.642923    1.086312    0.000012
H         3.347827   -1.360446    0.000028
H         1.816045   -3.307436    0.000024
H        -0.656698   -2.952455    0.000006
H         2.133773    1.926967    0.000003
H        -1.980482    2.831569   -0.000022
H        -3.532188    0.874239   -0.000028
