20
0 1
C        -1.481834    1.491753   -0.000001
C        -0.761902    0.364361   -0.000009
C         0.720488    0.330802   -0.000017
C         1.418141    1.662707   -0.000052
C         1.352091   -0.846639    0.000005
C         2.824218   -1.104711    0.000002
H         1.144316    2.249232   -0.880475
H         1.144350    2.249262    0.880361
H         2.499314    1.551405   -0.000071
H         3.104696   -1.696706   -0.876500
H         3.429980   -0.200314   -0.000012
H         3.104703   -1.696683    0.876517
O        -1.311553   -0.878860   -0.000010
C        -2.717247   -0.987666    0.000066
H        -3.149575   -0.524498    0.892265
H        -2.938800   -2.052806    0.000107
H        -3.149670   -0.524549   -0.892113
H         0.730084   -1.734216    0.000029
H        -0.989995    2.450676    0.000002
H        -2.560703    1.496434    0.000002
