9
0 1
C         0.134415    0.453780   -0.000001
C         1.275058   -0.220740    0.000000
C        -1.229218   -0.161883    0.000000
H         0.168663    1.541036    0.000001
H         1.291152   -1.305994   -0.000000
H         2.233306    0.284391    0.000001
H        -1.800216    0.152749   -0.878218
H        -1.800212    0.152739    0.878224
H        -1.174222   -1.251862   -0.000005
