43
0 1
C        -1.218212   -0.414113    0.257227
C        -2.039968   -1.429449    0.005833
C         2.392889   -0.592415    0.500889
N         2.324434   -0.975872    1.755178
N         2.298444   -1.302337    2.827312
C         3.730446   -0.393082   -0.082355
C         3.882818    0.139071   -1.365580
C         4.876881   -0.731163    0.643682
C         5.150621    0.323299   -1.895905
H         3.007717    0.402272   -1.939670
C         6.138395   -0.539978    0.105161
H         4.794489   -1.151530    1.638954
C         6.283972   -0.011280   -1.169417
H         5.248439    0.736856   -2.892509
H         7.011451   -0.809467    0.687077
H         7.270266    0.137191   -1.591155
C        -3.472097   -1.403263   -0.248648
C        -4.393857   -0.206815   -0.122326
C        -4.162177   -2.486949   -0.619994
C        -5.794323   -0.844731   -0.101610
H        -4.271240    0.459112   -0.981266
H        -4.187585    0.394321    0.764468
C        -5.625133   -2.203545   -0.807369
H        -3.717406   -3.459183   -0.798927
H        -6.553005   -0.213179   -0.565326
H        -6.267857   -2.981431   -0.388106
C         1.106305   -0.410589   -0.160243
C        -1.482610    1.038854    0.247983
C        -1.303428    1.782572    1.413418
C        -1.870577    1.685744   -0.921055
C        -1.543492    3.147683    1.416267
H        -0.986665    1.281996    2.320808
C        -2.109622    3.051630   -0.917788
H        -1.958870    1.112995   -1.835128
C        -1.951847    3.783855    0.250807
H        -1.413386    3.716432    2.329021
H        -2.407600    3.547954   -1.833423
H        -2.136994    4.851271    0.251992
O         0.083279   -0.748173    0.673222
O         0.940827   -0.029088   -1.287047
H        -5.868144   -2.139829   -1.875458
H        -6.097319   -1.015670    0.934041
H        -1.589187   -2.416597    0.033910
