40
0 1
C         1.013470    1.677770    0.162581
H         1.248896    2.605177   -0.372034
H         1.107523    1.913047    1.243065
C         2.023886    0.635193   -0.196858
C         0.227803   -1.040355   -0.497059
H        -0.170370   -1.118548   -1.514509
H         0.162900   -2.038048   -0.055315
C        -0.634569   -0.060453    0.300067
H        -0.341085   -0.143323    1.365400
N        -0.340172    1.286717   -0.177058
C         2.692952   -1.570473   -0.936999
C         3.467604    1.052733   -0.257916
C         3.986820   -1.343983   -0.712551
C         4.436045   -0.102553    0.017974
C         1.665184   -0.606502   -0.528638
C         4.557863   -0.399320    1.518342
H         4.935394    0.473543    2.057699
H         3.584695   -0.667567    1.935502
H         5.241564   -1.231466    1.699137
C        -2.110372   -0.400337    0.211435
C        -1.313434    2.272874    0.247791
H        -0.954807    3.259927   -0.052454
H        -1.422834    2.286208    1.348102
C        -2.648626    1.975739   -0.405861
H        -2.556798    2.138546   -1.484023
C        -3.065191    0.554631   -0.136041
H        -3.414319    2.662547   -0.036048
C        -4.407772    0.186814   -0.205278
H        -5.143849    0.937148   -0.474390
C        -2.530592   -1.696510    0.510888
H        -1.801181   -2.440238    0.809007
C        -4.813062   -1.106563    0.072423
H        -5.861395   -1.373538    0.014651
C        -3.865904   -2.053612    0.441058
H        -4.168029   -3.066894    0.676812
H         3.656533    1.867647    0.448989
H         3.659325    1.464924   -1.258214
H         5.424748    0.187537   -0.348685
H         2.368104   -2.492236   -1.409572
H         4.733560   -2.081970   -0.985862
