29
1 1
C         2.846916   -0.663033    1.195654
C         2.227335   -1.098769   -0.141878
C         2.609828    1.053218   -0.475259
C         3.121450    0.850329    0.957017
H         2.178857   -0.853335    2.035000
H         3.764145   -1.226631    1.365866
H         2.592453    1.492464    1.658540
H         4.184240    1.081699    1.018334
C         2.994070   -0.262241   -1.162920
H         2.621400   -0.358358   -2.183179
H         4.063050   -0.466351   -1.137896
H         2.107527   -2.164976   -0.311028
H         2.892263    1.985278   -0.956165
N         1.126725    0.959272   -0.409153
N         0.897394   -0.416669   -0.216255
C        -0.250999   -0.975076   -0.046955
C        -1.562290   -0.383599   -0.012628
C        -1.820392    0.994624    0.079717
C        -2.638132   -1.286530   -0.033274
C        -3.125795    1.441977    0.143956
H        -1.007313    1.702027    0.138784
C        -3.939154   -0.826669    0.011980
H        -2.445429   -2.351801   -0.087541
C        -4.182589    0.538557    0.100264
H        -3.324681    2.502519    0.227967
H        -4.763029   -1.527729   -0.012930
H        -5.202018    0.901775    0.141722
H         0.682159    1.240956   -1.281893
H        -0.193949   -2.052503    0.068251
