51
1 1
C        -1.798062    3.313691   -0.118297
C        -1.615944    1.851963    0.302831
C         0.424786    2.676838    0.539122
C        -0.372568    3.904495    0.078543
H        -2.169589    3.407245   -1.141179
H        -2.535802    3.785364    0.529903
H         0.045197    4.325717   -0.833544
H        -0.364073    4.677338    0.847049
C        -0.589689    1.945299    1.423140
H        -0.251763    0.990284    1.815564
H        -0.959254    2.559192    2.243381
H        -2.514615    1.263115    0.449536
H         1.396294    2.897643    0.962395
N         0.567182    1.800557   -0.652993
N        -0.774733    1.222673   -0.803119
C        -0.627595   -0.309226   -0.862232
C        -1.836443   -1.026268   -0.333001
C        -2.899651   -1.267140   -1.201163
C        -1.936366   -1.445612    0.991345
C        -4.052051   -1.894347   -0.752132
H        -2.822521   -0.974804   -2.243452
C        -3.086036   -2.078519    1.440082
H        -1.117171   -1.295762    1.682347
C        -4.146944   -2.298468    0.572033
H        -4.869058   -2.078634   -1.438113
H        -3.150832   -2.407438    2.469582
H        -5.041630   -2.795891    0.924700
C         0.739268   -0.579520   -0.243998
H         0.664177   -0.603965    0.844629
C         1.533022    0.661145   -0.667384
C         1.246658   -1.940290   -0.738877
H         0.366909   -2.567872   -0.903170
H         1.713561   -1.817250   -1.722365
C         2.794702    1.016964    0.104534
H         2.592090    1.020129    1.180254
H         3.048387    2.043527   -0.172045
C         4.028030    0.150485   -0.175726
H         4.075561   -0.097442   -1.241406
H         4.893548    0.788954    0.010354
C         4.205278   -1.119567    0.668650
H         5.278154   -1.253200    0.823422
H         3.786527   -0.959333    1.669300
C         2.180116   -2.713287    0.197324
H         2.037060   -3.775044   -0.016562
H         1.851086   -2.577201    1.234247
C         3.677519   -2.433534    0.092773
H         4.187840   -3.245885    0.616686
H         3.988420   -2.519480   -0.954882
H         1.814059    0.533153   -1.718613
H        -0.547956   -0.511896   -1.933068
H        -1.149931    1.536220   -1.697566
