15
0 2
S        -3.470728   -0.029609    0.000002
C        -1.749997   -0.004287    0.000001
C        -1.014773   -1.206971   -0.000003
C         0.364530   -1.186819   -0.000003
C         1.040964    0.034297    0.000000
C         0.329243    1.234922    0.000003
C        -1.048667    1.219242    0.000004
H        -1.553360   -2.145452   -0.000005
H         0.927528   -2.109922   -0.000006
H         0.879458    2.166796    0.000005
H        -1.612980    2.142470    0.000007
C         2.524804    0.107010   -0.000001
O         3.157777    1.129315    0.000000
O         3.110649   -1.104787   -0.000004
H         4.066970   -0.960739   -0.000004
