22
0 2
C         2.737822    0.000000   -0.000020
C         3.499094    1.288943   -0.000112
C         1.321622    0.000000   -0.000019
C         3.499094   -1.288943    0.000139
H         3.263106    1.899058    0.878460
H         3.262435    1.899357   -0.878285
H         4.573596    1.112410   -0.000543
C         0.579576   -1.211040   -0.000005
C         0.579576    1.211040   -0.000017
H         3.262897   -1.899238   -0.878248
H         3.262644   -1.899178    0.878497
H         4.573596   -1.112410    0.000283
C        -0.795147    1.213718   -0.000005
C        -1.474990    0.000000   -0.000003
C        -0.795147   -1.213718   -0.000003
H         1.099561   -2.158683   -0.000007
H        -1.358289   -2.136020   -0.000002
H         1.099561    2.158683   -0.000007
H        -1.358289    2.136020    0.000005
N        -2.934058    0.000000    0.000005
O        -3.503214    1.078005    0.000050
O        -3.503214   -1.078006   -0.000039
