29
0 2
C         4.611286    0.765255   -0.763125
C         4.611254   -0.765389   -0.763084
C         3.221506    1.167744   -0.277978
N         2.508544   -0.000006   -0.103941
C         3.221459   -1.167794   -0.277910
O         2.825050   -2.286732   -0.089843
O         2.825141    2.286709   -0.089977
Cl        0.656284    0.000054    0.632595
H         4.768916    1.202360   -1.749447
H         5.347572    1.203798   -0.089230
H         5.347525   -1.203927   -0.089169
H         4.768861   -1.202553   -1.749384
C        -1.004765    0.000138    1.920573
C        -2.145434    0.000076    1.041880
C        -2.701722    1.205442    0.586768
H        -0.796249    0.911904    2.465779
H        -0.796247   -0.911552    2.465905
C        -2.701719   -1.205352    0.586933
H        -2.266934    2.144482    0.908912
C        -3.783625    1.200154   -0.269055
C        -3.783623   -1.200185   -0.268890
C        -4.345792   -0.000046   -0.710539
H        -2.266929   -2.144348    0.909206
H        -4.201624    2.140295   -0.610311
H        -4.201619   -2.140374   -0.610017
C        -5.540144   -0.000109   -1.620038
H        -5.553662   -0.884751   -2.257895
H        -6.466238   -0.000041   -1.037483
H        -5.553631    0.884421   -2.258052
