11
0 2
C         0.721479    1.237092   -0.000005
C        -0.795497    1.212322   -0.000023
C         1.138948   -0.241524   -0.000002
N         0.004631   -1.082251    0.000016
C        -1.039825   -0.332703    0.000007
O        -2.256528   -0.657920    0.000018
O         2.264106   -0.641343   -0.000005
H         1.140458    1.719209    0.882690
H         1.140481    1.719215   -0.882685
H        -1.262287    1.640133   -0.885754
H        -1.262314    1.640182    0.885670
