17
0 2
C         2.893254    0.000000    0.009951
C         1.493116    0.000000    0.003339
C         0.750063   -1.208082   -0.002345
C         0.750064    1.208082   -0.002345
H         1.285252   -2.150877   -0.003560
C        -0.627100   -1.199001   -0.010801
C        -0.627100    1.199002   -0.010801
C        -1.348727    0.000000   -0.012148
H         1.285253    2.150877   -0.003560
H        -1.166249   -2.140324   -0.018337
H        -1.166248    2.140325   -0.018337
C        -2.850524    0.000000    0.014436
H        -3.256907   -0.883761   -0.480300
H        -3.223866   -0.000016    1.043355
H        -3.256907    0.883775   -0.480274
H         3.450698    0.927404    0.012646
H         3.450698   -0.927405    0.012646
