12
0 1
C         1.878504   -0.765801    0.000057
C         1.878504    0.765801    0.000049
C         0.422667   -1.184154    0.000008
N        -0.324449    0.000000   -0.000016
C         0.422668    1.184154    0.000018
O        -0.033861    2.287907    0.000010
O        -0.033861   -2.287907   -0.000002
Cl        -2.013491    0.000000   -0.000059
H         2.357021   -1.199371    0.878297
H         2.357084   -1.199382   -0.878143
H         2.357068    1.199370   -0.878166
H         2.357037    1.199383    0.878274
