11
0 2
C        -0.767127    1.230377   -0.015017
C         0.767132    1.230384   -0.014995
C        -1.142735   -0.247657   -0.030638
N         0.000003   -0.976340   -0.406839
C         1.142736   -0.247637   -0.030642
O         2.209129   -0.735352    0.215043
O        -2.209136   -0.735337    0.215050
H        -1.201575    1.714001   -0.890743
H        -1.210589    1.689528    0.868140
H         1.210569    1.689521    0.868183
H         1.201595    1.714042   -0.890694
