25
0 2
C          3.46909       -0.63962       -0.39272
C          3.46382        0.76605        0.21418
C          2.00181       -1.04638       -0.48533
N          1.27093        0.00468        0.02726
C          1.99378        1.10299        0.44296
O          1.55249        2.12397        0.89706
O          1.56821       -2.07964       -0.91853
Cl        -0.69104       -0.03460        0.10210
H          3.98951       -1.37748        0.21829
H          3.89840       -0.68219       -1.39393
H          3.88988        1.52667       -0.44040
H          3.98145        0.83072        1.17151
C         -2.85555       -0.03092        0.08493
C         -3.15878       -1.49203        0.22004
C         -3.15738        0.57973       -1.24963
C         -3.16330        0.82046        1.27887
H         -2.74805       -2.06671       -0.60961
H         -4.24934       -1.62064        0.21588
H         -2.77603       -1.89809        1.15592
H         -2.75914       -0.02247       -2.06580
H         -2.76118        1.59190       -1.32660
H         -4.24751        0.63274       -1.36845
H         -2.78080        0.37828        2.19835
H         -4.25427        0.90442        1.37176
H         -2.75538        1.82524        1.17248
