28
0 2
C         5.147331    0.765975   -0.942140
C         5.147341   -0.765923   -0.942158
C         3.785598    1.171598   -0.389437
N         3.073337    0.000004   -0.206483
C         3.785613   -1.171577   -0.389465
O         3.399456   -2.284951   -0.162476
O         3.399426    2.284961   -0.162420
Cl        1.288971   -0.000018    0.624959
H         5.256418    1.201909   -1.935468
H         5.916714    1.204056   -0.306136
H         5.916729   -1.204008   -0.306164
H         5.256435   -1.201832   -1.935496
C        -0.193396   -0.000048    2.086903
C        -1.424357   -0.000031    1.322687
C        -2.017873    1.209890    0.933859
H         0.059023    0.911040    2.614282
H         0.059022   -0.911160    2.614242
C        -2.017876   -1.209934    0.933809
H        -1.552849    2.146600    1.215308
C        -3.183239    1.215740    0.194824
C        -3.183242   -1.215750    0.194773
C        -3.746684    0.000003   -0.161148
H        -1.552855   -2.146657    1.215219
H        -3.660336    2.135737   -0.110578
H        -3.660341   -2.135733   -0.110667
N        -4.993335    0.000021   -0.947824
O        -5.468553   -1.077423   -1.247182
O        -5.468550    1.077478   -1.247138
