14
0 2
C         2.389777    0.000000    0.000005
C         0.988324    0.000000    0.000002
C         0.250935   -1.211956    0.000010
C         0.250935    1.211956   -0.000009
H         0.791221   -2.151702    0.000018
C        -1.127575   -1.205740    0.000007
C        -1.127575    1.205740   -0.000012
C        -1.829095    0.000000   -0.000004
H         0.791221    2.151702   -0.000015
H        -1.669475   -2.144085    0.000013
H        -1.669475    2.144085   -0.000020
H        -2.911965    0.000000   -0.000006
H         2.947059    0.927493   -0.000001
H         2.947059   -0.927493    0.000013
