34
0 2
O         2.277826   -0.426153    2.057081
C         1.994536   -0.617058    0.933162
C         2.164191    0.298311   -0.283790
C         3.268972   -0.349393   -1.133312
Cl        0.346473   -1.910101    0.505197
C        -1.585647   -1.323627   -0.270798
H         4.198187   -0.435670   -0.567296
H         3.463000    0.265991   -2.014640
H         2.974146   -1.346566   -1.464193
C        -1.485322    0.162332   -0.119750
C        -2.540908   -2.047435    0.641626
C        -1.623103   -1.846138   -1.684679
C        -2.569905    0.823103    0.466094
C        -0.387313    0.942163   -0.559676
H        -2.429556   -1.733056    1.678812
H        -2.364308   -3.122104    0.586865
H        -3.579797   -1.874572    0.334351
H        -0.905122   -1.361670   -2.342072
H        -2.620589   -1.655372   -2.100268
H        -1.451939   -2.923349   -1.710641
C        -2.621388    2.200682    0.593145
C        -1.567818    2.964979    0.124626
C        -0.476676    2.329136   -0.443371
C         0.894114    0.404746   -1.175953
H        -3.486733    2.668979    1.046097
H        -1.591277    4.045471    0.196353
H         0.342774    2.931565   -0.816335
H        -3.411142    0.244418    0.820874
C         2.631371    1.664360    0.225663
H         1.177110    1.084808   -1.986053
H         0.736859   -0.563459   -1.636388
H         3.560061    1.564198    0.787836
H         1.893119    2.121324    0.883320
H         2.811926    2.333055   -0.619541
