31
0 2
C        -1.199311   -2.141912   -0.470272
C        -2.067707   -1.218778    0.278287
O        -2.448946   -0.175783   -0.479467
C        -3.205953    0.847437    0.184624
C        -3.437196    1.957133   -0.811416
O        -2.375010   -1.342830    1.438732
Cl        0.683220   -1.222574   -0.344343
H        -1.349109   -2.174892   -1.540928
H        -1.035335   -3.089033    0.024422
H        -2.642932    1.188456    1.055669
H        -4.142112    0.416474    0.544809
H        -2.488450    2.369513   -1.158659
H        -4.012400    2.760032   -0.346022
H        -3.992258    1.593168   -1.677349
C         2.528904   -0.011403   -0.131590
C         2.440412    0.438867    1.299240
C         2.210459    1.188908   -0.976937
C         3.602244   -0.959331   -0.550698
C         1.380192    1.556030    1.316479
C         1.191139    1.997599   -0.158947
H         3.427721    0.833225    1.580603
H         2.221554   -0.380683    1.984638
H         1.860096    0.923490   -1.975200
H         3.144731    1.755722   -1.105236
H         3.635437   -1.837519    0.095124
H         4.575817   -0.454985   -0.483912
H         3.466056   -1.288993   -1.581330
H         1.692350    2.385185    1.952661
H         0.442571    1.176278    1.722570
H         0.182029    1.758675   -0.495295
H         1.332048    3.071256   -0.289478
