20
0 2
C        -1.607700    0.000000   -0.000011
C        -0.184936    0.000000   -0.000007
C        -2.367519   -1.290141    0.000067
C        -2.367518    1.290141   -0.000063
C         0.558065    1.206227    0.000036
C         0.558065   -1.206227   -0.000041
H        -2.132623   -1.902529   -0.878117
H        -3.442906   -1.114585    0.000248
H        -2.132331   -1.902599    0.878119
H        -2.132250    1.902666   -0.878044
H        -2.132704    1.902461    0.878192
H        -3.442905    1.114585   -0.000355
C         1.938867    1.200634    0.000043
C         2.643990    0.000000    0.000004
C         1.938868   -1.200634   -0.000038
H         0.037650   -2.154673   -0.000079
H         2.476221    2.141861    0.000081
H         3.726893    0.000000    0.000008
H         2.476221   -2.141861   -0.000070
H         0.037649    2.154673    0.000076
