34
0 2
O         2.177568    1.514086    0.032332
C         1.756739    0.490224    0.446603
C         1.763639   -0.836849   -0.311648
C         1.659679   -2.058752    0.596005
C        -1.021197    1.700799   -0.597430
H         2.470891   -2.073760    1.325486
H         1.740510   -2.959888   -0.015902
H         0.715905   -2.096711    1.134255
C        -1.464222    0.353042   -0.345488
C        -0.405549    2.143454   -1.887279
C        -1.338371    2.797862    0.367495
C        -2.653306    0.168303    0.394301
C        -0.792133   -0.813904   -0.800236
H        -0.571855    1.435376   -2.698857
H         0.672208    2.324739   -1.794309
H        -0.851711    3.097215   -2.187700
H        -1.483332    2.431984    1.383478
H        -2.238794    3.355116    0.072353
H        -0.517861    3.520935    0.386045
C        -3.207700   -1.078459    0.598898
C        -2.584803   -2.206045    0.078358
C        -1.385083   -2.056416   -0.600876
C         0.608135   -0.796822   -1.362223
H        -4.136485   -1.170716    1.149188
H        -3.016877   -3.189693    0.214025
H        -0.872701   -2.939230   -0.967788
H        -3.170595    1.040098    0.772988
C         3.090933   -0.881408   -1.084052
H         0.787671    0.056869   -2.008883
H         0.746643   -1.688179   -1.979195
H         3.941847   -0.885635   -0.400156
H         3.192129   -0.024002   -1.748154
H         3.129711   -1.794686   -1.680312
Cl         1.051858    0.464547    2.107659
