18
0 2
C        -2.240374    0.912859    0.357556
C        -2.833522   -0.368402   -0.270405
O        -2.660367   -0.446543   -1.582144
O        -3.416208   -1.187005    0.379925
C        -1.538931    0.581008    1.619277
F         0.013273   -0.492915    0.767149
S         1.384881   -1.384555   -0.043293
C         2.386599    0.108800   -0.104494
H        -3.124969    1.519257    0.604178
N        -1.446706    1.642893   -0.626876
H        -2.143516    0.351896   -1.828038
H        -1.900963   -0.244567    2.214215
H        -0.903568    1.324106    2.081470
F         1.776278    1.109380   -0.768707
F         2.698279    0.591001    1.099788
F         3.521354   -0.179041   -0.748018
H        -1.616825    2.638823   -0.617381
H        -0.453997    1.470077   -0.519393
