14
0 1
N         0.026084   -0.358690   -0.000216
C         1.158228    0.464684    0.000009
C        -1.366747   -0.091889    0.000005
O        -2.135471   -1.009867    0.000189
O         1.035242    1.662487    0.000072
C        -1.756220    1.355868   -0.000093
C         2.470471   -0.262509    0.000120
F         0.307386   -1.701453   -0.000105
H        -1.355656    1.868395   -0.873967
H        -1.355699    1.868475    0.873757
H        -2.843216    1.389764   -0.000112
H         3.259871    0.484392    0.000229
H         2.556626   -0.902470   -0.878840
H         2.556440   -0.902527    0.879057
