18
0 1
C        -0.447522    0.429389    0.000004
C         0.497645    0.545491   -1.192160
C         0.497644    0.545466    1.192171
C        -1.607711    1.400538    0.000013
C         1.772126   -0.205234   -0.775732
C         1.772111   -0.205273    0.775733
H         0.709351    1.611055   -1.330648
H         0.051013    0.176062   -2.115029
H         0.051007    0.176033    2.115037
H         0.709365    1.611026    1.330669
H        -2.231372    1.265323   -0.884385
H        -1.222881    2.423827    0.000027
H        -2.231377    1.265302    0.884403
H         2.663631    0.268159   -1.188715
H         1.748125   -1.227539   -1.153421
H         2.663623    0.268067    1.188761
H         1.748065   -1.227597    1.153368
Cl        -1.150842   -1.274822   -0.000014
