36
0 2
N         2.592207    0.430743   -0.229153
C         3.764363   -0.267622   -0.479355
C         2.333762    1.680219    0.339138
O         1.237249    1.947688    0.760531
O         4.835838    0.292450   -0.458879
C         3.486293    2.648105    0.348870
C         3.586949   -1.724544   -0.796462
F         1.331957   -0.497038   -0.090615
C        -0.508457   -1.407138    0.311817
C        -1.298348   -0.229711   -0.158476
C        -2.787278   -0.395554    0.058393
O        -3.455802    0.683421   -0.362164
O        -3.322789   -1.361228    0.539821
C        -4.887281    0.654541   -0.206297
C        -5.425324    1.962252   -0.731777
C        -0.437392   -2.605494   -0.564613
C        -0.328840   -1.579549    1.777008
H        -0.971463    0.679624    0.351976
H        -5.280402   -0.203221   -0.754717
H        -5.119182    0.508841    0.849999
H        -5.175779    2.089992   -1.786142
H        -6.512225    1.982244   -0.630135
H        -5.011518    2.804073   -0.174863
H         0.371693   -3.274548   -0.265515
H        -0.301806   -2.330830   -1.612714
H        -1.377256   -3.170437   -0.490039
H         0.474513   -2.283917    2.001065
H        -0.109526   -0.626269    2.260534
H        -1.253607   -1.976905    2.216454
H         3.914574    2.759385   -0.646410
H         3.104704    3.598473    0.715862
H         4.285506    2.279912    0.991794
H         3.182870   -2.250088    0.069605
H         2.879965   -1.858153   -1.615022
H         4.559921   -2.131112   -1.060939
H        -1.140691   -0.050605   -1.225145
