35
0 2
N         1.180705   -0.186334   -0.471844
S         1.382508    1.157369    0.523508
O         0.331977    2.149740   -0.165684
C         0.582486    2.553972   -1.521910
C         2.147658   -1.324424   -0.355129
Cl       -0.693682   -0.762869   -0.116246
O         0.896384    0.983540    1.867403
O         2.720841    1.660470    0.298489
C        -2.741845   -1.081815    0.932690
C        -3.605509   -1.222086   -0.197601
C        -4.331130   -0.237833   -0.706657
H         0.470163    1.697813   -2.186570
H         1.581543    2.980691   -1.608404
H        -0.171078    3.307436   -1.734977
C         2.328388   -1.813389    1.081110
C         3.488674   -0.870476   -0.953292
C         1.605233   -2.449321   -1.239222
H        -2.406159   -2.008516    1.382572
C        -2.771828    0.121313    1.812865
H        -3.648473   -2.190274   -0.687738
H        -1.848484    0.210878    2.383995
H        -3.608864    0.038738    2.516124
H        -2.907230    1.035029    1.234111
H         2.794101   -1.053835    1.710161
H         2.969518   -2.697129    1.087376
H         1.367506   -2.079360    1.523210
H         4.145423   -1.740494   -1.016287
H         3.340319   -0.475505   -1.959421
H         3.971494   -0.106561   -0.351364
H         0.710086   -2.901772   -0.817715
H         1.368731   -2.073397   -2.235708
H         2.369597   -3.222318   -1.332776
C        -5.035813    0.723433   -1.210327
H        -6.052904    0.913553   -0.881297
H        -4.629258    1.373975   -1.979171
