30
0 2
O         3.985988    0.872383    0.248122
C         3.116749    0.117809    0.037757
C         3.127524   -1.352734   -0.246693
C         4.523960   -1.962383   -0.255001
Cl        0.977117    0.813355    0.021802
C        -1.057853    1.469921    0.007673
H         2.608079   -1.480216   -1.200116
H         2.473122   -1.810934    0.499512
H         5.151634   -1.495461   -1.014863
H         4.465727   -3.030987   -0.467546
H         5.015395   -1.831130    0.709723
C        -1.830813    0.202713    0.021536
C        -1.112568    2.292120   -1.253741
C        -1.133049    2.310126    1.258259
C        -2.524473   -0.244160   -1.106040
C        -1.876909   -0.595187    1.171545
H        -0.844118    1.712537   -2.135967
H        -0.422333    3.132212   -1.181477
H        -2.122133    2.694983   -1.397964
H        -0.919992    1.742076    2.161454
H        -2.142636    2.727091    1.353408
H        -0.424697    3.136955    1.205033
C        -3.242790   -1.431554   -1.083462
C        -3.279493   -2.206760    0.065052
C        -2.588827   -1.781017    1.193836
H        -1.328878   -0.295195    2.054641
H        -3.777453   -1.749200   -1.970803
H        -3.839172   -3.134001    0.082954
H        -2.603571   -2.379973    2.096727
H        -2.516605    0.341787   -2.014645
