26
0 2
C         2.653160   -0.077267   -0.009311
C         1.305942   -0.389156   -0.033539
C         0.265794    0.531326    0.004398
N        -1.062272    0.212998   -0.035121
H         0.470947    1.593639    0.045483
H         1.043792   -1.441550   -0.091472
C         3.696136   -1.149383   -0.058282
C        -1.571435   -1.146559   -0.012456
H        -1.371184   -1.649535   -0.967478
C        -3.072362   -0.973411    0.239662
H        -1.088194   -1.735904    0.774396
H        -3.668382   -1.748552   -0.242286
C        -3.369797    0.433077   -0.287498
H        -3.274773   -1.016780    1.312815
C        -2.112331    1.207209    0.095124
H        -4.276868    0.866467    0.134610
H        -3.475835    0.414855   -1.375167
H        -2.181067    1.585892    1.125885
H        -1.920806    2.059694   -0.561761
H         4.344652   -1.121743    0.826402
H         4.355553   -1.030984   -0.927245
H         3.249521   -2.144024   -0.112699
C         3.120797    1.345454    0.068127
H         2.749647    1.848307    0.969555
H         2.773127    1.936778   -0.787927
H         4.210349    1.404707    0.085388
