22
0 2
N        -0.267027    0.651264   -0.143902
S         0.921462   -0.497541    0.051396
O         2.131789    0.244328   -0.673659
C         2.657335    1.438297   -0.062215
C        -1.668592    0.257404   -0.011218
O         1.188901   -0.572328    1.471580
O         0.685250   -1.682971   -0.729684
H         3.502708    1.721115   -0.682830
H         2.982853    1.224047    0.954838
H         1.897380    2.219425   -0.069617
C        -2.106479   -0.233875   -1.407844
C        -2.417039    1.542268    0.346488
C        -1.930053   -0.825171    1.041906
H        -1.912648    0.528753   -2.162999
H        -3.179799   -0.431529   -1.380030
H        -1.581188   -1.147023   -1.682959
H        -2.219239    2.318670   -0.393275
H        -2.103378    1.909138    1.325020
H        -3.491338    1.351383    0.376992
H        -1.464017   -1.773393    0.774822
H        -3.006589   -0.986485    1.117028
H        -1.557488   -0.518048    2.019395
