37
0 2
N        -1.134340    0.440835    0.380276
S        -1.900301   -0.952663   -0.167859
O        -1.257256   -2.015900    0.842987
C        -1.546186   -1.867508    2.242711
C        -1.607505    1.770841   -0.119221
Cl        0.791931    0.126946   -0.048664
O        -3.310545   -0.816537    0.130069
O        -1.482905   -1.390870   -1.474530
C         2.738160   -0.611260   -1.076122
C         3.671991   -0.419627   -0.023237
C         4.403616    0.706691    0.143927
C         5.368310    0.936562    1.254037
H        -1.116980   -2.747596    2.714161
H        -1.075649   -0.960078    2.620416
H        -2.623779   -1.837994    2.402958
C        -0.617777    2.811591    0.408917
C        -2.972996    2.063173    0.522639
C        -1.695056    1.842645   -1.643115
H         2.710642    0.157024   -1.842535
C         2.282037   -1.974189   -1.480236
H         3.781474   -1.229577    0.694747
H         4.275952    1.513956   -0.573765
H         5.435905    0.071057    1.914433
H         5.068883    1.802711    1.853021
H         6.368321    1.155704    0.867701
H         2.176027   -2.628674   -0.613783
H         3.021328   -2.421378   -2.155629
H         1.324020   -1.937756   -1.998543
H        -1.024368    3.807663    0.226748
H        -0.469711    2.688438    1.482794
H         0.349225    2.739797   -0.084452
H        -3.246933    3.093800    0.287787
H        -2.911237    1.960144    1.607059
H        -3.750838    1.399142    0.157869
H        -1.955439    2.858739   -1.946396
H        -2.456712    1.167548   -2.035173
H        -0.739678    1.578957   -2.098354
