38
1 2
F         0.767291   -0.824293   -0.683184
N        -0.733614   -0.372233   -0.372218
C        -0.622650    0.999581    0.155857
C        -2.031074    1.388365    0.668977
C        -3.065790    0.355516    0.185561
C        -1.231849   -1.319746    0.639418
C        -2.729411   -0.988624    0.856447
C        -4.482253    0.797061    0.519441
H        -4.735906    1.723462    0.000213
C        -1.490865   -0.436533   -1.631789
C        -2.882994    0.179660   -1.333875
H        -0.285115    1.627635   -0.666717
H         0.143010    0.986697    0.930804
H        -2.033829    1.434339    1.759064
H        -2.284936    2.382651    0.300463
H        -0.627282   -1.174102    1.532496
H        -1.066741   -2.324312    0.255704
H        -2.934770   -0.942306    1.926190
H        -3.353701   -1.779598    0.437912
H        -4.594437    0.971808    1.591347
H        -5.209249    0.037379    0.225223
H        -1.542279   -1.483091   -1.925565
H        -0.929318    0.116646   -2.381408
H        -3.656987   -0.473852   -1.737194
H        -2.978706    1.145177   -1.832858
C         2.839922   -1.225835   -0.369163
H         3.136405   -1.334304   -1.405316
C         2.686706   -2.406976    0.494493
C         2.959779    0.115908    0.220386
O         2.485362    0.428990    1.288982
O         3.617480    0.948105   -0.584009
C         3.828892    2.280874   -0.091085
H         3.682626   -2.798267    0.745501
H         2.156345   -3.211664   -0.016596
H         2.193541   -2.149284    1.431246
H         2.873749    2.783451    0.059053
H         4.412226    2.784439   -0.855563
H         4.371816    2.249107    0.852389
