8
0 2
C        -1.221650   -0.196300   -0.000001
C         0.000000    0.444208    0.000004
C         1.221649   -0.196300   -0.000001
H         0.000000    1.531191    0.000010
H         2.150489    0.358049    0.000001
H         1.282874   -1.278472   -0.000010
H        -2.150489    0.358050    0.000000
H        -1.282874   -1.278472   -0.000010
