25
0 2
C        -1.768134    0.766379    0.000014
C        -0.392663    0.365041    0.000008
C        -2.888602   -0.076788   -0.000026
C         0.029413   -0.982960   -0.000042
C         0.615881    1.341118    0.000055
C        -4.180262    0.358699   -0.000019
C         1.362271   -1.318146   -0.000044
C         2.344898   -0.323799    0.000004
C         1.962817    1.014097    0.000054
H         0.330654    2.387169    0.000094
H         1.679800   -2.353291   -0.000082
O         3.631379   -0.759166   -0.000003
H         2.699024    1.805479    0.000091
H        -0.704477   -1.778371   -0.000080
C         4.663909    0.204339    0.000054
H         5.597267   -0.353960    0.000045
H         4.619797    0.835276    0.893133
H         4.619826    0.835351   -0.892973
C        -5.374552   -0.534449   -0.000059
H        -6.005178   -0.356659   -0.877542
H        -6.005171   -0.356746    0.877446
H        -5.086038   -1.587294   -0.000111
H        -4.364479    1.430482    0.000020
H        -2.726707   -1.151805   -0.000066
H        -1.955210    1.836516    0.000053
