15
0 2
O        -2.569296   -0.864238    0.000013
C        -2.256522    0.269810   -0.000016
C        -0.869629    0.865280   -0.000001
C         0.259065   -0.162780   -0.000012
H        -0.817976    1.526784    0.870597
H         0.154910   -0.811663    0.874308
C         1.637243    0.490241    0.000013
H         0.154926   -0.811627   -0.874362
C         2.769432   -0.530609   -0.000003
H         1.730266    1.141375    0.875927
H         1.730279    1.141416   -0.875869
H         2.718185   -1.174165    0.881889
H         3.746000   -0.042573    0.000019
H         2.718201   -1.174120   -0.881929
H        -0.817959    1.526826   -0.870564
