38
0 2
C         3.189357    1.135123   -0.313137
C         3.168453   -0.267394    0.137923
O         2.744244   -1.093462   -0.835280
C         2.629172   -2.488783   -0.497693
C         1.334368   -2.785007    0.228371
O         3.467376   -0.637338    1.246700
Cl        1.188063    1.752176   -0.129113
H         3.358171    1.292978   -1.369732
H         3.702387    1.804073    0.363657
H         3.491641   -2.775245    0.104167
H         2.674512   -3.000162   -1.458171
H         1.311817   -2.291289    1.199405
H         1.244193   -3.860809    0.393918
H         0.472436   -2.458360   -0.355871
C        -0.989188    2.121732    0.013379
C        -1.365113    1.445828    1.303315
C        -1.510851    1.441754   -1.223456
C        -1.051976    3.617150    0.012572
H        -0.522011    4.038172    0.867600
H        -2.100932    3.936201    0.077049
H        -0.629905    4.035565   -0.901926
C        -1.215274   -0.071657    1.257793
H        -2.418972    1.690109    1.503517
H        -0.781575    1.857165    2.129696
C        -1.347167   -0.076953   -1.185069
H        -1.026299    1.850752   -2.112831
H        -2.581891    1.681769   -1.300811
N        -1.852139   -0.616590    0.066710
H        -1.679239   -0.535749    2.123464
H        -0.155364   -0.334917    1.245830
C        -2.897825   -1.485747    0.194494
H        -0.286493   -0.326180   -1.279108
H        -1.866711   -0.528054   -2.025022
O        -3.307884   -1.845547    1.285013
C        -3.536427   -2.004887   -1.077083
H        -4.321237   -2.696999   -0.784187
H        -2.814731   -2.528419   -1.706934
H        -3.976967   -1.197622   -1.665685
