24
0 2
C        -2.000035    0.047159   -0.047146
C        -1.172095    1.291328   -0.069790
C        -1.271372   -1.254828   -0.136438
C        -3.421280    0.117654   -0.481657
H        -3.505718    0.149854   -1.580339
H        -3.917042    1.014665   -0.101591
H        -3.987848   -0.755655   -0.148955
C         0.095355    1.159355    0.779045
H        -1.757164    2.150509    0.272412
H        -0.869940    1.516975   -1.107712
C        -0.001770   -1.273353    0.716522
H        -0.980753   -1.446998   -1.183353
H        -1.925158   -2.081961    0.155727
N         0.791724   -0.078080    0.473043
H        -0.177792    1.145983    1.840148
H         0.752339    2.010487    0.624191
C         1.998993   -0.179186   -0.156192
H         0.617032   -2.137580    0.491326
H        -0.268525   -1.298862    1.778633
O         2.472331   -1.257127   -0.474893
C         2.749448    1.105711   -0.438879
H         2.190640    1.757402   -1.113544
H         3.690445    0.833324   -0.909167
H         2.955303    1.662393    0.477262
