13
0 2
C        -2.455266   -0.077473    0.343551
C        -1.124914    0.301173   -0.051704
C         1.549403   -0.165737   -0.533381
C         2.210837    0.593571    0.605197
O        -0.812549    1.430721   -0.373449
H        -2.691360   -1.093348    0.630587
H        -3.223171    0.684295    0.348418
H         1.264007    0.507185   -1.341342
H         2.208020   -0.933201   -0.941120
H         1.543708    1.363164    0.993074
H         3.119032    1.084268    0.246255
H         2.484458   -0.076411    1.421764
S         0.044709   -1.055682   -0.034501
