23
0 2
O         2.386043   -1.601997    0.000002
C         1.961388   -0.510357   -0.000002
C         2.665690    0.812524   -0.000002
C         4.184260    0.692308    0.000003
Cl       -0.187066   -0.190502   -0.000006
C        -2.334967    0.120302    0.000001
H         2.289783    1.358235    0.869504
H         2.289788    1.358233   -0.869511
H         4.535018    0.153374    0.880829
H         4.640457    1.683450   -0.000001
H         4.535023    0.153365   -0.880815
C        -2.570609    0.892121   -1.266885
C        -2.875979   -1.280751    0.000053
C        -2.570590    0.892206    1.266840
H        -2.041345    1.846235   -1.257386
H        -3.642697    1.104332   -1.376812
H        -2.250881    0.326506   -2.143248
H        -2.554810   -1.831895    0.884932
H        -2.554822   -1.831955   -0.884794
H        -3.974042   -1.252891    0.000060
H        -2.250843    0.326654    2.143235
H        -3.642677    1.104419    1.376772
H        -2.041331    1.846323    1.257265
