22
0 1
C        -0.220867    0.028630   -0.016066
C         1.202930   -0.524757   -0.018620
C         2.007949    0.680427   -0.548871
C         1.294186    1.911104    0.013154
C        -0.193911    1.537900   -0.062208
C        -1.303884   -0.726606    0.003548
C         1.380319   -1.759515   -0.897984
C         1.622428   -0.853485    1.423080
H         1.955610    0.692164   -1.642438
H         3.062760    0.623526   -0.271219
H         1.525280    2.822407   -0.539397
H         1.591279    2.081306    1.050543
H        -0.634494    1.873068   -1.006656
H        -0.795728    1.983368    0.732016
H         1.039142   -1.567320   -1.917051
H         0.823222   -2.614908   -0.508963
H         2.434237   -2.046930   -0.937373
H         1.509459    0.006392    2.085814
H         2.668979   -1.168874    1.450899
H         1.008689   -1.661820    1.825396
H        -1.303475   -1.806197    0.008186
Cl        -2.918815   -0.057551    0.017296
