47
1 2
C         0.658543    3.518602    0.419127
C         1.560111    2.757347   -0.472821
C         2.132725    1.496385    0.173505
C         2.679031    0.524295   -0.863639
N         3.071457   -0.756891   -0.267362
C         2.093755   -1.664603    0.010650
O         0.909915   -1.461052   -0.189183
C         4.439357   -0.949997    0.065338
O         5.211964   -0.048885   -0.115560
C         4.856038   -2.280760    0.630779
F        -0.979649    2.009220    0.378664
H         0.065647    4.334028    0.025132
H         0.785449    3.475544    1.494030
H         2.378313    3.415246   -0.803048
H         1.018437    2.505303   -1.393030
H         1.345209    0.998645    0.741481
H         2.924669    1.760225    0.878560
H         3.558042    0.930276   -1.358327
H         1.922541    0.306711   -1.618083
H         2.447692   -2.607769    0.438071
H         4.605802   -3.102595   -0.041832
H         4.385710   -2.468954    1.597709
H         5.933615   -2.247837    0.766999
N        -1.944637    0.808041    0.195278
C        -3.316227    1.350276    0.246815
C        -4.271041    0.186073   -0.112709
C        -3.497877   -1.145381   -0.110595
C        -1.668209   -0.131399    1.303964
C        -2.739887   -1.243917    1.224906
C        -4.438794   -2.325347   -0.296433
H        -5.013270   -2.226259   -1.219768
C        -1.623466    0.215701   -1.119653
C        -2.451028   -1.085187   -1.236970
H        -3.363825    2.177610   -0.457814
H        -3.469266    1.733026    1.253957
H        -4.714668    0.354958   -1.095165
H        -5.085818    0.153794    0.611238
H        -1.710097    0.442004    2.227459
H        -0.663669   -0.514946    1.143071
H        -3.441068   -1.156170    2.056622
H        -2.247910   -2.213135    1.308859
H        -5.145509   -2.397893    0.532885
H        -3.881963   -3.263171   -0.346657
H        -0.554660    0.018282   -1.127785
H        -1.881259    0.959304   -1.871534
H        -1.782511   -1.944477   -1.170675
H        -2.939753   -1.115815   -2.211375
