23
0 2
C        -3.691154    0.807053   -0.037778
C        -3.761203   -0.717305    0.087272
C        -2.203563    1.133052   -0.129040
N        -1.533035   -0.068551   -0.137994
C        -2.310703   -1.192106    0.048191
O        -1.924031   -2.324814    0.156173
O        -1.711004    2.229708   -0.183843
Cl        0.467767   -0.118254   -0.163563
H        -4.106721    1.337698    0.819047
H        -4.181192    1.194227   -0.931573
H        -4.300822   -1.199134   -0.728364
H        -4.206328   -1.059776    1.021757
C         2.518560    0.281881    0.246801
C         2.583185    0.115954    1.740072
C         2.683048    1.686833   -0.267137
H         1.901336    0.817104    2.221186
H         3.601040    0.327663    2.081946
H         2.314587   -0.893765    2.049439
H         1.946614    2.340802    0.198488
H         2.552103    1.739730   -1.347539
H         3.684745    2.050412   -0.016410
S         3.408371   -0.884077   -0.725009
H         3.211172   -1.950879    0.069768
