23
0 2
C         1.434352   -1.315527    0.000018
F         2.393701    0.497220   -0.000103
C         2.054256   -1.802067   -1.268934
C         0.071642   -0.831108    0.000039
C         2.054338   -1.801941    1.268979
H         1.900739   -1.111080   -2.095754
H         1.624115   -2.771406   -1.552944
H         3.127135   -1.934983   -1.140362
C        -0.617715   -0.580464   -1.200210
C        -0.617637   -0.580342    1.200308
H         1.624216   -2.771252    1.553113
H         1.900875   -1.110871    2.095740
H         3.127210   -1.934869    1.140351
S         3.223933    2.193982   -0.000211
H         2.019932    2.790940   -0.000204
C        -1.914105   -0.104190    1.205691
C        -2.557590    0.134345    0.000076
C        -1.914184   -0.104313   -1.205558
H        -0.133629   -0.757282   -2.149894
H        -2.428402    0.083501   -2.138701
H        -0.133488   -0.757064    2.149977
H        -2.428262    0.083719    2.138849
Cl       -4.193342    0.736799    0.000099
