20
0 2
C        -2.477633    0.000000   -0.000003
C        -3.236733    1.290497   -0.000015
C        -1.057258   -0.000002   -0.000003
C        -3.236739   -1.290495    0.000020
H        -3.001714    1.902467   -0.878368
H        -3.001898    1.902372    0.878457
H        -4.311993    1.115340   -0.000135
C        -0.312236    1.205353    0.000021
C        -0.312235   -1.205356   -0.000024
H        -3.001754   -1.902440    0.878400
H        -3.001877   -1.902397   -0.878425
H        -4.311998   -1.115332    0.000098
C         1.067004   -1.206965   -0.000024
C         1.755328    0.000000   -0.000001
C         1.067003    1.206964    0.000023
H        -0.828625    2.155596    0.000043
H         1.616066    2.139489    0.000043
H        -0.828622   -2.155599   -0.000045
H         1.616068   -2.139490   -0.000043
Cl         3.501020    0.000001    0.000000
