21
0 1
C         1.447175    0.014538    0.000006
C         2.016882   -0.604722   -1.264622
C        -0.069548    0.009376   -0.000003
C         2.016863   -0.604513    1.264745
H         1.635729   -0.080292   -2.141318
H         1.732900   -1.655154   -1.340784
H         3.105767   -0.535973   -1.253890
C        -0.761757   -1.200213    0.000081
C        -0.791163    1.196845   -0.000092
H         1.732877   -1.654932    1.341077
H         1.635700   -0.079937    2.141348
H         3.105749   -0.535769    1.254017
C        -2.180418    1.174780   -0.000096
C        -2.863362   -0.031612   -0.000012
C        -2.147717   -1.221838    0.000077
H        -0.218686   -2.138372    0.000152
H        -2.670343   -2.170867    0.000143
H        -0.260186    2.138503   -0.000158
H        -2.729407    2.108912   -0.000166
H        -3.946461   -0.046842   -0.000015
F         1.874959    1.361653   -0.000102
