23
0 2
C        -0.362905    1.323522    0.000029
F        -1.769530   -0.185367   -0.000023
C        -0.839571    1.951138   -1.268877
C         0.829597    0.503491    0.000021
C        -0.839597    1.951075    1.268957
H        -0.872115    1.241586   -2.093556
H        -0.173335    2.774660   -1.557815
H        -1.840917    2.358372   -1.138652
C         1.430790    0.086273   -1.201696
C         1.430764    0.086210    1.201730
H        -0.173367    2.774582    1.557950
H        -0.872157    1.241482    2.093600
H        -1.840940    2.358316    1.138733
S        -2.991061   -1.617038   -0.000071
H        -1.974179   -2.495547   -0.000082
C         2.563785   -0.706160    1.199702
C         3.137960   -1.109873    0.000004
C         2.563811   -0.706098   -1.199685
H         1.004785    0.383274   -2.149543
H         3.003742   -1.012497   -2.141141
H         1.004738    0.383163    2.149583
H         3.003695   -1.012608    2.141151
H         4.024994   -1.731348   -0.000002
