24
1 2
C         4.845539    0.681120   -0.000003
C         4.191218    0.453331   -1.204445
C         2.885780   -0.001350   -1.181049
N         2.319548   -0.192140    0.000001
C         2.885779   -0.001336    1.181049
C         4.191217    0.453345    1.204442
F         0.832732   -0.757817    0.000003
S        -1.273711   -1.777628    0.000005
H         5.868804    1.034748   -0.000004
H         4.678748    0.619385   -2.155483
H         2.287869   -0.216021   -2.057070
H         2.287867   -0.215996    2.057072
H         4.678745    0.619411    2.155479
C        -2.374193   -0.475332    0.000001
C        -1.937585    0.869938   -0.000000
C        -2.858469    1.892640   -0.000003
C        -4.224760    1.604779   -0.000005
C        -4.671642    0.284263   -0.000003
C        -3.762945   -0.751047    0.000000
H        -2.524925    2.922512   -0.000005
H        -4.943481    2.414842   -0.000007
H        -0.876218    1.076273    0.000001
H        -4.096322   -1.780881    0.000001
H        -5.732764    0.071012   -0.000004
