16
0 2
N        -0.190666   -1.520153   -0.012804
H         0.508797   -2.208812   -0.282500
C         0.363185   -0.299105    0.289299
C        -0.416262    0.812983    0.874400
C         1.791498   -0.247568   -0.015690
H        -1.242659    0.445937    1.474460
H         0.228360    1.419925    1.509336
S        -1.102379    1.986436   -0.375030
O         2.394561   -1.267320   -0.335745
H        -2.014051    1.124671   -0.857593
N         2.414516    0.963153    0.109541
H         1.882934    1.810142   -0.015756
H         3.368441    0.984152   -0.217127
C        -1.511156   -1.860591   -0.103458
H        -1.644098   -2.923633   -0.353577
O        -2.442084   -1.104015    0.060591
