17
0 1
N        -0.612509   -1.091392   -0.278202
H         0.070368   -1.526046   -0.885964
C        -0.119102   -0.061500    0.622144
C         1.321082   -0.350351    1.026578
C        -0.271812    1.350156    0.021785
H         1.704782    0.478593    1.616099
H         1.349783   -1.252724    1.636939
S         2.460864   -0.669418   -0.362622
O         0.690022    2.058273   -0.211579
H         2.399056    0.576563   -0.863687
N        -1.548620    1.721134   -0.195860
H        -2.316551    1.093230    0.012964
H        -1.719791    2.625013   -0.606548
C        -1.912178   -1.420671   -0.383091
H        -2.094657   -2.256082   -1.075737
O        -2.815188   -0.863979    0.216997
H        -0.745523   -0.096203    1.518468
