20
0 2
N        -1.684852    0.695202    0.643088
H        -1.076838    1.172117    1.296427
C        -1.121161    0.362139   -0.654474
H        -1.950749    0.361243   -1.367734
C        -0.110919    1.416253   -1.096440
C        -0.513359   -1.051465   -0.676342
H         0.441825    1.054629   -1.960662
H        -0.644806    2.322153   -1.389677
S         1.071528    1.967637    0.169154
O         0.666403   -1.234793   -0.907804
H         2.240735    1.024218   -0.085711
N        -1.396992   -2.040343   -0.443205
H        -2.375621   -1.837410   -0.275642
H        -1.059328   -2.989618   -0.434366
C        -2.914046    0.309886    1.033693
H        -3.192779    0.689113    2.028344
O        -3.659331   -0.388944    0.370446
N         3.252431    0.191924   -0.077705
N         3.014463   -0.828189    0.524778
N         2.868302   -1.805680    1.087729
