20
0 2
N         1.990572   -0.491723    0.120999
H         2.736845    0.095129    0.476081
C         0.677976    0.094072    0.048216
H         0.101856   -0.416508   -0.726670
C        -0.053209   -0.083834    1.393683
C         0.822454    1.581349   -0.283724
H        -0.090910   -1.148211    1.657154
H         0.537204    0.420049    2.175167
O         1.730351    2.223126    0.203560
H        -1.959484    0.474271    0.443653
N        -0.105992    2.094387   -1.115893
H        -0.085461    3.086141   -1.296448
H        -0.889597    1.552114   -1.445187
C         2.315302   -1.706469   -0.392867
H         1.446212   -2.226329   -0.838151
O         3.419389   -2.191294   -0.374902
N        -2.482929    0.098287   -0.561781
N        -3.266724   -0.816497   -0.368076
N        -4.009818   -1.660741   -0.269002
O        -1.305686    0.503998    1.461195
