20
0 2
N         0.096542    0.211855    1.381906
H         0.355452   -0.402866    2.143926
C         0.446715   -0.234572    0.084331
H        -0.644313   -0.245899   -0.700655
C         0.927822   -1.671778    0.111524
C         1.384797    0.681030   -0.713538
H         0.143613   -2.302555    0.530433
H         1.137877   -2.000442   -0.907969
O         2.475999    0.238424   -1.032647
H         2.782199   -1.343356    0.502478
N         0.939962    1.905838   -1.010912
H         1.556632    2.529710   -1.507429
H         0.039012    2.222743   -0.668534
C        -0.716757    1.262314    1.665142
H        -0.926922    1.363144    2.739197
O        -1.177927    2.016827    0.835301
O        -1.595481   -0.264814   -1.496992
N        -2.603552   -0.853237   -0.961982
O        -2.478858   -1.296231    0.136808
O         2.060058   -1.805911    0.947620
