16
0 2
N        -0.641871   -1.093620   -0.298927
H         0.013285   -1.512440   -0.946767
C        -0.107383   -0.113243    0.630671
H        -0.743864   -0.131445    1.518683
C         1.321068   -0.458198    1.022264
C        -0.158802    1.300078    0.021933
H         1.702478    0.285841    1.719717
H         1.333814   -1.430675    1.524680
S         2.444592   -0.605015   -0.378704
O         0.853668    1.869009   -0.338316
N        -1.397659    1.822718   -0.066396
H        -1.509066    2.712287   -0.526640
H        -2.208404    1.257117    0.155844
C        -1.962300   -1.323787   -0.428763
H        -2.197878   -2.110131   -1.161542
O        -2.826497   -0.734396    0.195306
