17
0 1
N        -0.612511   -1.091392   -0.278202
H         0.070365   -1.526047   -0.885965
C        -0.119102   -0.061500    0.622143
H        -0.745523   -0.096203    1.518467
C         1.321081   -0.350354    1.026578
C        -0.271809    1.350156    0.021785
H         1.704782    0.478589    1.616100
H         1.349781   -1.252728    1.636937
S         2.460863   -0.669419   -0.362623
O         0.690025    2.058273   -0.211574
N        -1.548617    1.721134   -0.195864
H        -2.316549    1.093232    0.012960
H        -1.719786    2.625015   -0.606549
C        -1.912180   -1.420669   -0.383090
H        -2.094661   -2.256080   -1.075737
O        -2.815190   -0.863976    0.216998
H         2.399057    0.576562   -0.863686
