17
0 1
N        -0.612470   -1.091414   -0.278165
H         0.070420   -1.526022   -0.885946
C        -0.119100   -0.061496    0.622167
H        -0.745514   -0.096209    1.518495
C         1.321097   -0.350306    1.026593
C        -0.271839    1.350146    0.021779
H         1.704782    0.478665    1.616084
H         1.349818   -1.252661    1.636978
S         2.460868   -0.669392   -0.362612
O         0.689982    2.058245   -0.211684
N        -1.548664    1.721136   -0.195760
H        -2.316574    1.093196    0.013029
H        -1.719850    2.624969   -0.606545
C        -1.912143   -1.420686   -0.383111
H        -2.094580   -2.256094   -1.075775
O        -2.815179   -0.864013    0.216946
H         2.399032    0.576571   -0.863714
