16
0 2
N        -0.641871   -1.093620   -0.298930
H         0.013284   -1.512445   -0.946766
C        -0.107384   -0.113245    0.630670
H        -0.743868   -0.131447    1.518681
C         1.321066   -0.458199    1.022266
C        -0.158801    1.300075    0.021932
H         1.702474    0.285840    1.719720
H         1.333813   -1.430676    1.524681
S         2.444592   -0.605012   -0.378701
O         0.853669    1.869001   -0.338325
N        -1.397656    1.822721   -0.066386
H        -1.509064    2.712287   -0.526635
H        -2.208402    1.257120    0.155853
C        -1.962301   -1.323785   -0.428765
H        -2.197880   -2.110129   -1.161544
O        -2.826497   -0.734393    0.195304
