22
0 2
C         2.006562   -0.243641   -0.207790
C         1.301007    1.077943   -0.465476
C        -0.073389    1.170470    0.201487
H         1.206896    1.211430   -1.544633
H         1.949946    1.876089   -0.091233
C        -1.056853    0.110979   -0.282268
H        -0.482387    2.165210   -0.000800
H         0.033431    1.105466    1.289276
C        -2.432648    0.232841    0.363603
N         2.339328   -0.983320   -1.153132
C         2.298611   -0.632799    1.224680
H         2.845494    0.170080    1.724338
H         2.887656   -1.547141    1.260785
H         1.364960   -0.791608    1.767876
C        -3.412281   -0.828659   -0.123150
H        -2.839912    1.229332    0.160813
H        -2.327332    0.163580    1.452000
H        -4.388868   -0.721394    0.353396
H        -3.043166   -1.834057    0.095623
H        -3.559806   -0.760614   -1.204106
H        -1.156237    0.182193   -1.371448
H        -0.652022   -0.888133   -0.086480
