22
0 2
C         1.743903    0.203494   -0.055142
C         0.813804    0.262373    1.145508
C        -0.491975   -0.508911    0.930810
H         0.614442    1.308809    1.375788
H         1.349212   -0.160406    2.001266
C        -1.312181   -0.071462   -0.286758
H        -1.105458   -0.394333    1.831309
H        -0.275002   -1.578599    0.848614
C        -1.714300    1.399942   -0.210999
C        -2.541397   -0.964773   -0.436328
N         2.077213    1.244643   -0.652265
C         2.252628   -1.149092   -0.502336
H         2.742694   -1.655158    0.332571
H         2.959266   -1.041175   -1.322903
H         1.419577   -1.773424   -0.831023
H        -2.262929   -2.018573   -0.517879
H        -3.115530   -0.699664   -1.326845
H        -2.290451    1.597367    0.698890
H        -2.338438    1.673488   -1.064510
H        -0.847074    2.061692   -0.216236
H        -3.203762   -0.861107    0.428684
H        -0.689939   -0.200852   -1.180399
