16
0 2
N        -0.641872   -1.093619   -0.298932
H         0.013283   -1.512443   -0.946768
C        -0.107384   -0.113245    0.630670
H        -0.743869   -0.131447    1.518679
C         1.321065   -0.458201    1.022266
C        -0.158800    1.300075    0.021932
H         1.702474    0.285838    1.719720
H         1.333812   -1.430677    1.524681
S         2.444592   -0.605013   -0.378701
O         0.853670    1.869001   -0.338324
N        -1.397655    1.822721   -0.066387
H        -2.208401    1.257122    0.155853
H        -1.509062    2.712288   -0.526635
C        -1.962301   -1.323785   -0.428765
H        -2.197882   -2.110128   -1.161544
O        -2.826497   -0.734393    0.195305
