17
0 1
N        -0.612508   -1.091394   -0.278200
H         0.070369   -1.526043   -0.885966
C        -0.119101   -0.061500    0.622145
H        -0.745523   -0.096203    1.518469
C         1.321083   -0.350350    1.026579
C        -0.271813    1.350155    0.021785
H         1.704782    0.478595    1.616099
H         1.349785   -1.252722    1.636940
S         2.460865   -0.669416   -0.362621
O         0.690020    2.058271   -0.211584
N        -1.548622    1.721134   -0.195854
H        -2.316553    1.093228    0.012967
H        -1.719793    2.625011   -0.606548
C        -1.912177   -1.420671   -0.383092
H        -2.094655   -2.256082   -1.075740
O        -2.815188   -0.863980    0.216995
H         2.399056    0.576564   -0.863687
