11
0 2
S         1.814164   -0.091051   -0.000045
C         0.125264    0.534687    0.000012
C        -0.969256   -0.524014    0.000001
C        -2.363119    0.095118    0.000062
H         0.037731    1.194577   -0.870616
H         0.037781    1.194503    0.870703
H        -0.842793   -1.166971    0.874839
H        -0.842841   -1.166905   -0.874892
H        -2.519053    0.721376   -0.882372
H        -2.519008    0.721306    0.882553
H        -3.135772   -0.675813    0.000051
