25
0 2
C        -4.667690   -0.381874   -0.124008
C        -4.610493    0.992749    0.056478
C        -3.379100    1.620657    0.091231
C        -2.197920    0.889115   -0.072995
C        -2.282614   -0.495611   -0.260927
C        -3.510838   -1.131539   -0.276561
S        -0.653830    1.719543   -0.059144
H        -5.523183    1.560537    0.178825
H        -3.323327    2.689731    0.252110
H        -1.378487   -1.077074   -0.385564
H        -3.574678   -2.202747   -0.413739
H         0.163035    0.536964    0.477038
O         0.870637   -0.339658    1.064487
C         2.100494   -0.301369    0.666123
C         2.430413   -0.177820   -0.710675
C         3.745204   -0.151292   -1.113074
C         4.756936   -0.259529   -0.160030
C         4.464425   -0.386604    1.200760
C         3.154965   -0.395511    1.611203
H         2.890744   -0.479119    2.657311
H         4.003081   -0.057067   -2.159468
H         1.627748   -0.108376   -1.433140
H         5.272461   -0.468248    1.915489
Cl        6.412987   -0.239713   -0.672177
Cl       -6.217922   -1.179008   -0.157447
