26
0 2
C        -2.314562   -0.674434    0.291925
C        -2.644055    0.744893   -0.111820
C        -1.504800    1.392436   -0.932492
H        -2.851044    1.354687    0.771528
H        -3.543834    0.721852   -0.728637
C        -0.248418    1.605820   -0.158003
H        -1.866668    2.359469   -1.294300
H        -1.330599    0.771333   -1.812496
C         0.879275    0.759867   -0.149454
H        -0.212567    2.477891    0.488797
N        -2.444313   -1.584996   -0.581106
C        -1.824626   -0.884293    1.697871
H        -0.948362   -0.258836    1.884991
H        -1.559575   -1.926480    1.879522
H        -2.595209   -0.584017    2.413293
C         0.957858   -0.435741   -0.908176
C         1.999452    1.089211    0.657435
C         3.114925    0.281343    0.702086
C         2.081112   -1.236285   -0.854657
C         3.167484   -0.890028   -0.053546
H         3.955460    0.559318    1.327017
H         1.965707    1.999440    1.245872
H         0.121716   -0.734197   -1.526155
H         4.044578   -1.524151   -0.018144
H         2.115124   -2.145537   -1.443415
H        -2.166415   -2.492531   -0.207136
