26
0 2
C        -2.995661    0.897253   -0.106005
C        -2.404406   -0.128900   -1.058015
C        -2.277477   -1.550019   -0.520844
H        -1.426211    0.247407   -1.372869
H        -3.032136   -0.125020   -1.955118
C        -1.362305   -1.690923    0.705953
H        -1.891134   -2.175248   -1.331182
H        -3.266313   -1.938932   -0.266467
C        -0.005853   -1.068200    0.502653
N        -3.494451    0.589321    0.992330
C        -2.951466    2.340681   -0.559973
H        -1.910849    2.653965   -0.670276
H        -3.448586    2.989956    0.157997
H        -3.437824    2.438922   -1.532913
C         0.316182    0.151246    1.091412
C         0.944573   -1.674036   -0.316472
C         2.176832   -1.083926   -0.550680
C         1.544834    0.757881    0.868774
C         2.464751    0.133835    0.044528
H         2.910855   -1.563123   -1.184966
H         0.721480   -2.629113   -0.779725
H        -0.407319    0.636607    1.736507
Cl         4.015098    0.889026   -0.246421
H         1.788098    1.704484    1.333113
H        -1.846410   -1.233295    1.569187
H        -1.249191   -2.754641    0.931569
