12
0 2
C         1.755249    0.000000   -0.000030
C         1.092116   -1.216441   -0.000021
C        -0.287257   -1.211934    0.000006
C        -1.010102    0.000000    0.000026
C        -0.287257    1.211934    0.000003
C         1.092116    1.216441   -0.000023
S        -2.727826    0.000000    0.000054
H         1.661863   -2.136267   -0.000034
H        -0.837190   -2.143771    0.000013
H        -0.837191    2.143771    0.000009
H         1.661862    2.136267   -0.000039
F         3.096296    0.000000   -0.000065
