26
0 2
C        -3.282555   -0.474872   -0.510727
C        -2.877005   -0.425406    0.955926
C        -2.220083    0.905600    1.333486
H        -2.204122   -1.272278    1.125639
H        -3.756105   -0.612435    1.577746
C        -1.248200    1.392899    0.278042
H        -1.737474    0.813976    2.312495
H        -3.007215    1.654312    1.444911
C         0.117580    0.845230    0.205857
H        -1.269550    2.470931    0.124288
N        -2.761546    0.244031   -1.401222
C        -4.344669   -1.480931   -0.876200
H        -4.055186   -2.474811   -0.524955
H        -4.492630   -1.507062   -1.953657
H        -5.287073   -1.221209   -0.387264
C         1.046099    1.432750   -0.662762
C         0.537127   -0.263084    0.946183
H        -1.890078    0.966429   -0.784524
C         1.823597   -0.767412    0.827615
C         2.330715    0.939813   -0.793869
C         2.711834   -0.163983   -0.044791
H         2.136643   -1.622549    1.412042
H        -0.138983   -0.739519    1.643648
H         0.747683    2.293769   -1.250099
Cl        4.334242   -0.794484   -0.200858
H         3.036156    1.404824   -1.469697
