19
0 1
C         0.909978    1.167119    0.509896
C         1.570913    0.098771   -0.356077
O         0.508287   -0.819937   -0.662568
C        -0.705230   -0.102676   -0.808790
C        -0.510034    1.183405   -0.007622
H         1.368849    2.153376    0.457854
C         2.699877   -0.668098    0.285052
H         1.913221    0.550252   -1.297126
H         2.365629   -1.124175    1.219390
H         3.536869   -0.001753    0.503246
H         3.051014   -1.457116   -0.381206
C        -1.848325   -0.956007   -0.291766
H        -0.883008    0.168643   -1.859150
O        -1.593817   -1.394625    1.025087
H        -2.003952   -1.803961   -0.967916
H        -2.757470   -0.354701   -0.266823
H        -0.752097   -1.862436    1.006594
O        -1.341814    2.032948    0.142906
H         0.876622    0.849702    1.557581
