11
0 2
C        -0.000001   -1.389531    0.000000
C        -1.220270   -0.767639    0.000000
C         1.220270   -0.767639    0.000000
C        -1.207517    0.628390    0.000000
C         1.207518    0.628388    0.000000
C         0.000000    1.316599    0.000000
H         2.152720   -1.319039    0.000000
H         2.144464    1.173487    0.000000
H        -2.152721   -1.319036    0.000000
H        -2.144464    1.173488    0.000000
H         0.000001    2.399687    0.000000
