26
0 2
C         4.456453   -0.337834   -0.000109
C         3.285044    0.610992   -0.000141
C         1.921630   -0.062450    0.000081
H         3.380795    1.269677   -0.871748
H         3.380952    1.269954    0.871239
C         0.797576    0.916986    0.000057
H         1.853676   -0.730442    0.866203
H         1.853511   -0.730685   -0.865835
C        -0.564151    0.559996    0.000051
H         1.035681    1.976417    0.000072
N         4.250973   -1.588407   -0.000060
C         5.814518    0.315569   -0.000122
H         5.930001    0.955514   -0.878753
H         6.614109   -0.425907   -0.000366
H         5.930177    0.955110    0.878782
C        -0.993229   -0.790620    0.000066
C        -1.571438    1.557328    0.000032
C        -2.909490    1.233467    0.000024
C        -2.333395   -1.117250    0.000059
C        -3.287805   -0.106516    0.000037
H        -3.666875    2.006267    0.000008
H        -1.275310    2.600019    0.000021
H        -0.258514   -1.585342    0.000086
Cl        -4.983028   -0.521296    0.000028
H        -2.648030   -2.152646    0.000072
H         5.130216   -2.105075   -0.000058
