25
0 2
C         4.609643   -0.995945    0.059061
C         4.628532    0.362297   -0.236597
C         3.451668    1.090971   -0.247040
C         2.235508    0.471730    0.060225
C         2.224324   -0.894517    0.364847
C         3.403445   -1.620287    0.352802
S         0.759657    1.422921    0.078012
H         5.530886   -1.565484    0.058361
H         5.565235    0.853633   -0.470772
H         3.460067    2.144282   -0.497920
H         1.287226   -1.382032    0.601097
H         3.382045   -2.679106    0.581140
H        -0.178733    0.287187   -0.325710
O        -0.998367   -0.548625   -0.834433
C        -2.203184   -0.355335   -0.398104
C        -2.461702   -0.142359    0.982527
C        -3.754212    0.045084    1.421051
C        -4.816525    0.015161    0.517182
C        -4.577998   -0.197003   -0.844378
C        -3.293929   -0.367632   -1.305142
H        -3.074812   -0.520495   -2.354088
H        -3.947984    0.208460    2.474049
H        -1.625409   -0.134843    1.669666
H        -5.830186    0.155994    0.871197
H        -5.409337   -0.218333   -1.538359
