29
0 2
C        -0.291343   -0.187437    1.216414
C        -1.228499   -1.306233    0.825123
C        -1.751413   -1.174716   -0.627865
H        -2.075252   -1.298402    1.515458
H        -0.735953   -2.275097    0.944624
C        -2.450995    0.116494   -0.902877
H        -2.436630   -2.013522   -0.797751
H        -0.917566   -1.298380   -1.322105
C        -3.764142    0.381405   -0.248579
C        -1.707943    1.265409   -1.494279
N        -0.590132    0.714718    2.061468
C         1.035038   -0.102319    0.538587
C         1.737045    1.103618    0.563509
C         1.600394   -1.192159   -0.120531
H        -2.366723    1.894418   -2.101559
H        -0.876450    0.933888   -2.119668
H        -1.282237    1.917876   -0.716938
H        -4.313393   -0.542045   -0.046812
H        -4.396331    1.024680   -0.868204
H        -3.647232    0.905502    0.713372
C         2.839677   -1.082758   -0.736894
C         2.968556    1.216128   -0.057533
C         3.525149    0.122009   -0.710231
H         1.082739   -2.141948   -0.152217
H         1.293857    1.943523    1.081646
H         3.499072    2.160489   -0.033926
H         4.489502    0.210076   -1.196105
H         3.268011   -1.941669   -1.239227
H        -1.523638    0.560937    2.440062
