15
0 2
C         0.464575    0.705702    0.000095
C         0.481798   -0.682130   -0.000104
N         1.569183   -1.428706   -0.000226
C         2.719579   -0.756257   -0.000144
C         2.813639    0.637103    0.000055
C         1.658364    1.403504    0.000180
C        -0.930719    1.197737    0.000182
C        -0.920445   -1.202468   -0.000159
H         3.621177   -1.359157   -0.000242
H         3.790053    1.103650    0.000109
H         1.679347    2.486041    0.000334
O        -1.352949   -2.306090   -0.000313
O        -1.364055    2.306175    0.000348
N        -1.735210   -0.001427    0.000023
O        -2.989137   -0.004928    0.000040
