14
0 2
C        -0.242611    1.211839   -0.000003
C         1.134120    1.210954    0.000020
C         1.874111    0.000000    0.000031
C         1.134120   -1.210954    0.000018
C        -0.242611   -1.211839   -0.000005
C        -0.928659    0.000000   -0.000015
H        -0.795797    2.141770   -0.000012
H        -0.795797   -2.141770   -0.000014
H         1.669605   -2.152940    0.000026
H         1.669605    2.152940    0.000029
C         3.273270    0.000000    0.000054
Cl        -2.671710    0.000000   -0.000044
H         3.830514   -0.927301    0.000063
H         3.830514    0.927300    0.000064
