15
0 2
C        -0.464575    0.705699    0.000004
C        -0.481797   -0.682131    0.000127
N        -1.569184   -1.428707    0.000349
C        -2.719581   -0.756257    0.000459
C        -2.813640    0.637103    0.000347
C        -1.658363    1.403502    0.000115
C         0.930717    1.197736   -0.000240
C         0.920445   -1.202469   -0.000028
H        -3.621176   -1.359160    0.000635
H        -3.790052    1.103653    0.000444
H        -1.679343    2.486039    0.000023
O         1.352954   -2.306090    0.000006
O         1.364050    2.306177   -0.000395
N         1.735214   -0.001425   -0.000248
O         2.989135   -0.004925   -0.000425
