14
0 2
C         1.127575   -1.205740   -0.000050
C        -0.250935   -1.211956   -0.000016
C        -0.988324    0.000000    0.000024
C        -0.250935    1.211956    0.000028
C         1.127575    1.205740   -0.000006
C         1.829095    0.000000   -0.000045
H         1.669475   -2.144085   -0.000080
H         1.669475    2.144085   -0.000002
H         2.911965    0.000000   -0.000072
H        -0.791221    2.151702    0.000059
H        -0.791221   -2.151702   -0.000020
C        -2.389777    0.000000    0.000059
H        -2.947059    0.927493    0.000089
H        -2.947059   -0.927493    0.000055
