15
0 1
H        -2.788144    0.000050    1.036616
C        -2.412733    0.000000    0.009300
C        -0.908055   -0.000001   -0.011097
C        -0.193643   -1.195587   -0.008863
C         1.194209   -1.198530    0.002030
C         1.894207    0.000001    0.008260
C         1.194207    1.198530    0.002030
C        -0.193644    1.195586   -0.008863
H        -2.816432    0.883470   -0.487727
H        -2.816432   -0.883518   -0.487642
H        -0.732159   -2.137140   -0.017795
H         1.730315   -2.140274    0.001824
H         2.977417    0.000001    0.013913
H         1.730313    2.140275    0.001824
H        -0.732161    2.137139   -0.017795
