13
0 2
C        -1.771462    0.016615    0.000323
C        -1.070748    1.224570    0.000194
C         0.303454    1.212762   -0.000058
C         1.028888   -0.001153   -0.000190
C         0.292889   -1.205293   -0.000051
C        -1.084473   -1.198725    0.000200
S         2.741155   -0.012259   -0.000501
H        -1.629578    2.151385    0.000296
H         0.856870    2.142868   -0.000160
H         0.834164   -2.142460   -0.000148
H        -1.636373   -2.132942    0.000303
O        -3.121347    0.085246    0.000571
H        -3.504071   -0.797334    0.000659
