30
0 2
C         4.276994   -1.650087   -0.154309
C         3.113401   -1.061148    0.304100
C         3.087340    0.303198    0.632747
C         4.256926    1.057869    0.462699
C         5.419985    0.464014    0.006711
C         5.434561   -0.892160   -0.301336
H         4.283346   -2.703447   -0.406320
H         6.318870    1.056781   -0.111443
H         6.344604   -1.356205   -0.661769
C        -2.996345    0.540398   -0.034010
C        -2.517871   -0.758813   -0.116214
N        -3.229007   -1.847356    0.092182
C        -4.511548   -1.635080    0.399208
C        -5.091702   -0.372703    0.506522
C        -4.318962    0.761606    0.287271
C        -1.887860    1.491252   -0.322276
C        -1.056484   -0.713446   -0.466548
H        -5.110582   -2.522820    0.570827
H        -6.140122   -0.289434    0.761715
H        -4.723809    1.763140    0.361895
O        -0.256020   -1.593318   -0.577065
O        -1.888348    2.687296   -0.318258
N        -0.784317    0.662785   -0.608128
O         0.395970    1.128565   -0.972875
H         4.244060    2.115398    0.700819
H         2.202266   -1.641948    0.387070
C         1.855515    0.927385    1.090508
H         1.175603    0.282229    1.645565
H         1.948808    1.924267    1.515036
H         1.153704    1.109985    0.023371
