29
0 2
C         0.077027    1.395846    0.136007
C         1.119330    1.071528    1.195209
C         1.691338   -0.341445    1.047963
H         0.659787    1.185432    2.180708
H         1.906359    1.822294    1.128765
C         2.295545   -0.655140   -0.323986
H         0.907673   -1.073531    1.261346
H         2.460847   -0.477918    1.816065
C         2.755980   -2.110058   -0.368675
C         3.439903    0.290773   -0.681502
N         0.276426    2.339732   -0.658195
C        -1.162504    0.565984    0.035258
C        -1.737935   -0.007543    1.166022
C        -1.761260    0.369639   -1.208236
H         4.230297    0.245599    0.074926
H         3.105332    1.326056   -0.763441
H         3.883446    0.014786   -1.640741
H         3.551484   -2.288565    0.361584
H         3.147260   -2.369504   -1.354921
H         1.934666   -2.794439   -0.142349
C        -2.917202   -0.386305   -1.316450
C        -2.898740   -0.759451    1.056386
C        -3.489451   -0.952081   -0.184316
H        -1.307548    0.810882   -2.086544
H        -1.287504    0.137290    2.139774
H        -3.341649   -1.196382    1.943102
H        -4.392681   -1.543937   -0.269627
H        -3.372361   -0.536556   -2.287843
H         1.507425   -0.530120   -1.075531
