14
0 2
C         2.389777    0.000000    0.000031
C         0.988324    0.000000    0.000013
C         0.250935   -1.211956    0.000016
C        -1.127575   -1.205740   -0.000002
C        -1.829095    0.000000   -0.000024
C        -1.127575    1.205740   -0.000027
C         0.250935    1.211956   -0.000009
H         2.947059    0.927493    0.000029
H         2.947059   -0.927493    0.000047
H         0.791221   -2.151702    0.000032
H        -1.669475   -2.144085    0.000000
H        -2.911965    0.000000   -0.000038
H        -1.669475    2.144085   -0.000043
H         0.791221    2.151702   -0.000011
