15
0 2
C        -0.227162    1.206309   -0.001715
C         1.148198    1.209781   -0.000695
C         1.894850    0.002410   -0.000217
C         1.151384   -1.207684    0.001149
C        -0.222864   -1.207422    0.002941
C        -0.934293   -0.001100    0.002158
H        -0.762937    2.148249   -0.005202
H        -0.761213   -2.148033    0.006756
H         1.686377   -2.150202    0.002175
H         1.680270    2.154029   -0.002052
C         3.291636    0.004733   -0.000649
H         3.847736    0.932825   -0.001691
H         3.850683   -0.921557   -0.000183
S        -2.701799   -0.081176   -0.004972
H        -2.922637    1.241348    0.061913
