31
0 2
C        -2.407367   -2.250542    0.066051
C        -1.820509   -1.764351    1.223194
C        -1.251125   -0.495747    1.243693
C        -1.260837    0.303663    0.106942
C        -1.852255   -0.196643   -1.054275
C        -2.420526   -1.459813   -1.077950
H        -2.848698   -3.239917    0.050849
H        -1.791375   -2.376094    2.116856
H        -0.766869   -0.153497    2.146913
H        -1.840218    0.406554   -1.953782
H        -2.872197   -1.831002   -1.990433
C        -0.633822    1.695552    0.064479
O         0.185647    1.816427   -1.085086
S         2.630953   -0.786505   -0.002656
C         1.463619   -1.810883   -0.929448
H         0.465046   -1.386543   -0.861403
H         1.798858   -1.872067   -1.964991
H         1.487240   -2.797253   -0.470453
C         2.435006    0.745575   -0.884289
H         2.974304    1.533075   -0.362153
H         2.753346    0.645008   -1.922090
H         1.223483    1.168798   -0.950273
O         2.099851   -0.620715    1.395366
C         0.147269    2.055698    1.326188
H         0.642901    3.014631    1.167887
H        -0.521952    2.157129    2.182664
H         0.895601    1.295915    1.559582
C        -1.730725    2.750233   -0.170908
H        -2.454718    2.707587    0.644576
H        -1.284305    3.744458   -0.206102
H        -2.252040    2.565154   -1.109453
