15
0 2
C        -0.464574    0.705700    0.000127
C        -0.481798   -0.682131    0.000011
N        -1.569185   -1.428707    0.000106
C        -2.719580   -0.756257    0.000331
C        -2.813638    0.637104    0.000462
C        -1.658363    1.403503    0.000360
C         0.930718    1.197736   -0.000034
C         0.920444   -1.202469   -0.000235
H        -3.621178   -1.359157    0.000408
H        -3.790052    1.103653    0.000642
H        -1.679344    2.486041    0.000454
O         1.352951   -2.306090   -0.000392
O         1.364053    2.306176   -0.000001
N         1.735213   -0.001426   -0.000252
O         2.989137   -0.004927   -0.000433
