31
0 2
C        -3.625015    0.241790   -1.048148
C        -2.310723    0.215848   -1.492211
C        -1.273621    0.013510   -0.589268
C        -1.550869   -0.151125    0.769354
C        -2.867563   -0.137555    1.203487
C        -3.904161    0.061251    0.299677
H        -4.431245    0.396390   -1.754741
H        -2.089480    0.347780   -2.545588
H        -3.085154   -0.273929    2.257129
H        -4.929667    0.075540    0.648290
C         0.671679   -1.247212    1.081962
H         1.595403   -1.186427    1.661398
H         0.319299   -2.285511    1.120075
N         0.972039   -0.908559   -0.303188
C        -0.368900   -0.307650    1.681142
H        -0.672980   -0.690570    2.656544
H         0.095327    0.669721    1.839293
O         1.173000    2.210403   -0.206304
C         0.149245    0.001237   -1.008044
O         2.087914    1.654884    0.664685
C         3.370357    1.650127    0.060429
H         0.289289   -0.094941   -2.083679
H         0.582433    1.145878   -0.733319
H         4.044595    1.228634    0.806235
H         3.372956    1.022434   -0.833936
H         3.671037    2.668300   -0.193521
C         2.054771   -1.484023   -0.921055
C         2.920894   -2.350654   -0.383499
H         2.171516   -1.180489   -1.955934
H         2.853229   -2.701537    0.636227
H         3.725297   -2.736910   -0.992149
