33
0 2
C         0.020807    2.167876    1.178042
C        -1.275853    1.692235    1.176588
C        -1.934068    1.394430   -0.028624
C        -1.231749    1.610419   -1.227435
C         0.065318    2.082068   -1.215937
C         0.719523    2.364130   -0.014630
H         0.510378    2.378029    2.122495
H         0.591984    2.215023   -2.154026
C         0.885219   -1.258201    0.717473
C         0.896495   -1.269897   -0.668521
N         1.965187   -1.108629   -1.422131
C         3.106170   -0.923392   -0.753894
C         3.203632   -0.893230    0.635972
C         2.062007   -1.064275    1.409030
C        -0.511229   -1.424009    1.199896
C        -0.510325   -1.457690   -1.163185
H         3.994877   -0.789567   -1.361508
H         4.169590   -0.734889    1.097869
H         2.084559   -1.043374    2.491426
O        -0.942094   -1.507267   -2.273459
O        -0.934139   -1.436931    2.319793
N        -1.275415   -1.549300    0.023897
O        -2.589100   -1.659182    0.025712
H        -1.708303    1.368128   -2.169914
H        -1.787922    1.517239    2.115438
C        -3.254766    0.797450   -0.033555
H        -3.849814    0.931580    0.866536
H        -3.821369    0.884726   -0.957459
H        -3.021190   -0.500336   -0.000562
C         2.131352    2.875472   -0.011346
H         2.711988    2.433396   -0.822628
H         2.151702    3.960781   -0.146885
H         2.632593    2.651491    0.931254
