32
0 2
C        -2.117798   -0.068941    0.132352
C        -1.233031   -0.958022    0.998294
C         0.128671   -0.320483    1.267913
H        -1.122679   -1.915541    0.477155
H        -1.750592   -1.185283    1.933810
C         0.726733    0.266403    0.003719
C         1.239346   -0.738371   -1.010370
C         1.685887    1.421185    0.194622
N        -1.663676    0.804203   -0.653261
C        -3.606387   -0.316559    0.247427
C        -4.461881    0.469260   -0.732793
C         3.083667    0.921465    0.589468
H         1.301366    2.117555    0.944598
H         1.768507    1.980171   -0.744787
C         2.638758   -1.244892   -0.631728
H         1.292870   -0.257224   -1.993517
H         0.547627   -1.578505   -1.115187
H        -5.519630    0.242548   -0.585105
H        -4.196360    0.228016   -1.762818
H        -3.772219   -1.394038    0.131442
H        -3.894413   -0.088374    1.280283
C         3.612370   -0.083636   -0.433256
H         3.036265    0.446811    1.576262
H         3.770234    1.767416    0.682660
H         4.591567   -0.459813   -0.124492
H         3.761200    0.427013   -1.392287
H         3.009501   -1.925426   -1.403155
H         2.578570   -1.828391    0.293998
H        -4.315069    1.541993   -0.604912
H         0.794109   -1.063834    1.724236
H         0.003516    0.479331    2.003996
H        -0.416662    0.751705   -0.503244
