32
0 2
C        -2.218518   -0.588698    0.242217
C        -1.078198   -0.747651    1.237215
C         0.031480    0.293316    1.059244
H        -0.680475   -1.758161    1.142975
H        -1.500125   -0.660911    2.243221
C         0.629962    0.358657   -0.351924
C         1.251663   -0.966864   -0.814772
C         1.669746    1.483121   -0.461424
N        -2.479087   -1.501369   -0.563692
C        -3.011994    0.705340    0.278272
C        -4.165366    0.768452   -0.711980
C         2.970817    1.162742    0.277531
H         1.245471    2.421755   -0.091055
H         1.898974    1.642223   -1.521019
C         2.540513   -1.303633   -0.064811
H         1.480889   -0.878856   -1.882569
H         0.528922   -1.781001   -0.731071
H        -3.807817    0.666083   -1.737408
H        -4.881942   -0.034117   -0.532938
H        -3.372474    0.835126    1.304326
H        -2.311392    1.526911    0.101452
C         3.559563   -0.170294   -0.184227
H         2.788694    1.124605    1.356872
H         3.692564    1.968713    0.119623
H         4.461256   -0.405111    0.387900
H         3.868584   -0.080226   -1.232640
H         2.962908   -2.233345   -0.454989
H         2.323092   -1.488230    0.993317
H        -4.689078    1.722034   -0.625370
H         0.808482    0.076056    1.795776
H        -0.352290    1.285078    1.318370
H        -0.188647    0.594029   -1.040977
