15
0 1
C        -2.891384    0.892131    0.000054
C        -1.814419   -0.164659   -0.000025
O        -2.067685   -1.355028    0.000007
N        -0.534936    0.289416   -0.000045
H        -0.317291    1.274420   -0.000084
C         0.571674   -0.628337    0.000026
C         1.860835    0.143176   -0.000016
H         0.549783   -1.285855    0.873959
H         0.549793   -1.285970   -0.873820
O         1.946543    1.342067   -0.000087
O         2.923680   -0.670598    0.000035
H         3.719468   -0.119913    0.000005
H        -2.499567    1.909544   -0.000937
H        -3.518402    0.748860    0.880447
H        -3.519768    0.747610   -0.879145
