7
0 2
C         1.374085   -0.276826   -0.000003
C        -0.014622    0.109388    0.000002
H         2.117816    0.505598    0.000010
H         1.660191   -1.318519   -0.000019
O        -0.415121    1.252581    0.000016
O        -0.857027   -0.950489   -0.000013
H        -1.757601   -0.599194   -0.000010
