35
0 2
C         0.268281    0.101697   -0.164048
C         1.115112   -0.762611   -1.090786
C         2.455111   -1.130091   -0.458707
H         1.255881   -0.197591   -2.019203
H         0.554496   -1.657700   -1.369745
C         3.117845    0.068529    0.189418
H         3.113616   -1.577564   -1.215599
H         2.284028   -1.896866    0.302676
C         3.657507    1.099462   -0.773190
C         4.040663   -0.253103    1.337174
H         1.997508    0.611049    0.698938
N         0.757696    0.817805    0.748868
C        -1.230459    0.061148   -0.402241
H        -1.380194   -0.052735   -1.485052
C        -1.950421    1.327441    0.058395
C        -1.831265   -1.177760    0.282456
H         4.930045   -0.794084    0.985161
H         3.547868   -0.881555    2.082504
H         4.388792    0.654844    1.834803
H         4.537599    0.712113   -1.303881
H         3.964398    2.006722   -0.248306
H         2.919363    1.386659   -1.525103
H        -1.332720   -2.087588   -0.063862
C        -3.335719   -1.276038    0.036371
H        -1.637731   -1.100388    1.357855
H        -1.528991    2.197239   -0.451404
H        -1.754269    1.473543    1.124232
C        -3.454236    1.231677   -0.191298
H        -3.642438    1.183578   -1.270995
H        -3.949977    2.136708    0.169593
C        -4.055821   -0.003175    0.477629
H        -5.123660   -0.075770    0.254209
H        -3.968474    0.099385    1.565584
H        -3.742062   -2.145134    0.560822
H        -3.516542   -1.442559   -1.032350
