35
0 2
C        -0.799304    1.210849    2.077377
C        -1.677468    1.240220    1.010362
C        -2.081154    0.000004    0.435076
C        -1.677474   -1.240214    1.010359
C        -0.799310   -1.210850    2.077374
C        -0.346285   -0.000002    2.596308
H        -0.464792    2.143747    2.515693
H        -0.464803   -2.143751    2.515688
H         0.349714   -0.000005    3.426552
O        -2.848899    0.000008   -0.627597
H        -2.221879   -0.000000   -1.562634
C         1.718802   -0.694411   -0.528194
C         1.718804    0.694407   -0.528197
C         2.703734    1.415141    0.114757
C         3.700017    0.696632    0.769530
C         3.700016   -0.696633    0.769533
C         2.703731   -1.415143    0.114763
C         0.542235   -1.180394   -1.290921
C         0.542237    1.180389   -1.290926
H         2.694021    2.497537    0.105126
H         4.490624    1.226986    1.285903
H         4.490622   -1.226986    1.285909
H         2.694017   -2.497539    0.105137
O         0.216201    2.294042   -1.580320
O         0.216198   -2.294048   -1.580310
N        -0.168436   -0.000003   -1.646326
O        -1.248228   -0.000003   -2.375240
C        -2.217010   -2.515002    0.446808
H        -1.893953   -3.367939    1.043410
H        -3.307916   -2.487846    0.421377
H        -1.877201   -2.665245   -0.579938
C        -2.216997    2.515010    0.446813
H        -3.307903    2.487861    0.421382
H        -1.893935    3.367945    1.043417
H        -1.877187    2.665253   -0.579933
