18
0 2
C        -0.614853   -1.226458    0.000000
C         0.754687   -1.255302   -0.000001
C         1.500773    0.000000   -0.000001
C         0.754687    1.255302   -0.000001
C        -0.614853    1.226458    0.000000
C        -1.290671    0.000000    0.000000
H        -1.187368   -2.145412    0.000000
H        -1.187368    2.145412    0.000000
O         2.740866    0.000000    0.000000
C         1.534370    2.527554    0.000001
H         0.875259    3.395410   -0.000014
H         2.188595    2.574272    0.873168
H         2.188618    2.574259   -0.873150
C         1.534370   -2.527554    0.000001
H         2.188594   -2.574272    0.873169
H         0.875259   -3.395410   -0.000015
H         2.188619   -2.574259   -0.873149
Cl        -3.024012    0.000000    0.000000
