33
1 2
N         0.829011    0.226957    0.148668
C         1.935067    1.041727    0.544510
H         1.045730   -0.653449   -0.311493
C         2.698812    1.713474   -0.556011
H         1.646632    1.726659    1.335769
H         2.769078    0.198049    1.114003
O         2.974838    0.973385   -1.647407
N         3.100020    2.907384   -0.521978
H         2.823517    3.375393    0.335775
C         3.379542   -0.992372    1.524550
C         3.612290   -1.630203    0.224432
H         2.544178   -1.408278    2.079055
H         4.256884   -0.750713    2.112847
O         2.744999   -1.740024   -0.633128
O         4.862160   -2.015329    0.015893
H         4.937566   -2.367817   -0.884423
C        -0.442901    0.546464    0.447375
C        -1.497713   -0.444141   -0.042083
O        -0.784847    1.545267    1.055111
N        -2.780210    0.143042    0.291375
H        -1.372739   -1.412342    0.448733
H        -1.414286   -0.599691   -1.119493
H        -2.694060    1.018373    0.809768
H         2.752526    0.040473   -1.527618
C        -3.932842   -0.359355   -0.096615
C        -5.208065    0.409787    0.298200
O        -4.090005   -1.389417   -0.748585
N        -6.308833   -0.402083   -0.301011
H        -5.216264    1.416780   -0.114478
H        -5.327572    0.463521    1.378582
H        -5.751982   -1.196681   -0.750932
H        -6.840629    0.096804   -1.014308
H        -6.960799   -0.777521    0.387605
