16
0 2
C         0.000000   -0.452130    0.695769
C         0.000000   -0.452130   -0.695769
C         0.000000   -1.630965   -1.415396
C         0.000000   -2.821868   -0.696983
C         0.000000   -2.821868    0.696983
C         0.000000   -1.630965    1.415396
C         0.000000    0.940889    1.196250
C         0.000000    0.940889   -1.196250
H         0.000000   -1.618418   -2.497750
H         0.000000   -3.766084   -1.227154
H         0.000000   -3.766084    1.227154
H         0.000000   -1.618418    2.497750
O         0.000000    1.374044   -2.305073
O         0.000000    1.374044    2.305073
N         0.000000    1.754730    0.000000
O         0.000000    3.008760    0.000000
