18
0 2
C         0.000000   -1.370088    1.219990
C         0.000000    0.001794    1.256231
C         0.000000    0.745671    0.000000
C         0.000000    0.001794   -1.256231
C         0.000000   -1.370088   -1.219990
C         0.000000   -2.058593    0.000000
H         0.000000   -1.931467    2.147535
H         0.000000   -1.931467   -2.147535
H         0.000000   -3.142012    0.000000
O         0.000001    1.987788    0.000000
C         0.000000    0.783394   -2.527573
H         0.000010    0.123634   -3.395270
H        -0.873013    1.437916   -2.576207
H         0.873000    1.437933   -2.576197
C         0.000000    0.783394    2.527573
H        -0.873013    1.437916    2.576207
H         0.000010    0.123634    3.395270
H         0.873000    1.437933    2.576197
