16
0 2
C         0.452130   -0.695776    0.000017
C         0.452130    0.695776    0.000027
C         1.630974    1.415386    0.000087
C         2.821884    0.696980    0.000136
C         2.821884   -0.696980    0.000126
C         1.630974   -1.415386    0.000066
C        -0.940910   -1.196257   -0.000050
C        -0.940910    1.196257   -0.000035
H         1.618454    2.497741    0.000094
H         3.766105    1.227145    0.000184
H         3.766105   -1.227145    0.000166
H         1.618454   -2.497741    0.000058
O        -1.374036    2.305090   -0.000048
O        -1.374036   -2.305090   -0.000081
N        -1.754753    0.000000   -0.000082
O        -3.008776    0.000000   -0.000142
