38
0 2
C         2.653597   -0.890170    0.132582
C         2.788840    0.165726   -0.941615
C         2.559982    1.601932   -0.413269
H         2.082438   -0.033369   -1.751785
H         3.792558    0.101749   -1.369856
C         1.145182    1.932001   -0.060150
N         3.639481   -1.478056    0.676669
C         1.264345   -1.251871    0.586025
C         0.512649   -2.107069   -0.436324
H         0.699763   -0.335002    0.772686
H         1.353557   -1.799423    1.526193
H         0.463945   -1.591994   -1.400683
C        -0.914252   -2.451505    0.011744
H         1.068880   -3.034298   -0.599709
H        -0.875268   -2.924529    0.997065
H        -1.329602   -3.192884   -0.675749
C        -1.831472   -1.256221    0.059280
C        -2.040721   -0.548516    1.240335
C        -2.475049   -0.816116   -1.095923
C        -2.865290    0.568441    1.267751
C        -3.303503    0.296253   -1.074098
H        -1.554897   -0.879457    2.151612
C        -3.500662    0.994674    0.109952
H        -2.329417   -1.358638   -2.024238
H        -3.798510    0.617948   -1.982760
H        -4.148025    1.862963    0.130203
H        -3.016332    1.103130    2.198178
H         2.911976    2.287717   -1.198445
H         3.212515    1.763131    0.449353
C         0.139054    2.072016   -1.150147
C         0.815947    2.470227    1.289282
H         0.384002    1.459480   -2.021122
H         0.075057    3.114055   -1.503642
H        -0.861913    1.791539   -0.814958
H         1.437969    2.020970    2.068062
H        -0.232963    2.293428    1.542254
H         0.974784    3.559532    1.345714
H         4.521237   -1.158463    0.272400
