41
0 2
N         1.481836    0.131417    0.534887
S         2.222164   -1.055024   -0.372504
O         1.170751   -2.232711   -0.173458
C        -0.197637   -2.007038   -0.604240
C        -1.110036   -2.093229    0.598087
H        -0.411053   -2.781765   -1.340863
H        -0.272608   -1.036981   -1.095822
C        -2.543395   -1.658141    0.263305
C        -2.608408   -0.177031   -0.057208
C        -3.501801   -2.037992    1.394016
C         2.008533    1.492912    0.498455
C         1.268469    2.188942   -0.666080
C         3.524020    1.604836    0.313211
C         1.579783    2.119846    1.827242
H         0.500632    2.033764    1.955244
H         1.854252    3.176260    1.845078
H         2.070815    1.620222    2.663683
H         1.568578    1.764379   -1.622642
H         1.525386    3.250124   -0.646482
H         0.189073    2.089192   -0.553427
H         3.843441    1.219991   -0.655371
H         4.057284    1.060896    1.093067
H         3.807342    2.657229    0.368501
O         3.426724   -1.499513    0.276276
O         2.225594   -0.651191   -1.763460
C        -2.931611    0.263942   -1.336288
H        -4.520833   -1.721259    1.165740
H        -3.208619   -1.568427    2.335718
H        -3.504334   -3.119107    1.548826
C        -2.340833    0.779346    0.921965
C        -2.990689    1.620045   -1.634795
C        -2.406650    2.133161    0.632564
C        -2.731822    2.559937   -0.649257
H        -2.201761    2.860332    1.409648
H        -2.076957    0.464185    1.924831
H        -3.141593   -0.464415   -2.112337
H        -3.242165    1.939616   -2.639000
H        -2.781057    3.617938   -0.876384
H        -0.701794   -1.455133    1.384832
H        -1.111171   -3.118205    0.977610
H        -2.862441   -2.198264   -0.635325
