40
0 2
N         2.298988    0.331049    0.160101
S         2.010740   -1.242750   -0.186107
O         0.461368   -1.165996   -0.655645
C        -0.204246   -2.410072   -0.961572
C        -1.680627   -2.102365   -1.064290
H        -0.001846   -3.125702   -0.161189
H         0.195733   -2.793960   -1.901750
C        -2.302555   -1.700641    0.225219
H        -2.174948   -3.000138   -1.469975
H        -1.828969   -1.320700   -1.819800
C        -3.682226   -1.150347    0.266056
H        -1.801994   -1.959157    1.153009
C         1.388942    1.165296    0.984929
C         0.230142    1.639917    0.103111
N         0.593365    2.042863   -1.113415
C        -1.090240    1.678762    0.528643
O         2.055779   -2.049736    1.010102
O         2.831621   -1.587172   -1.321411
C        -4.094668   -0.622661    1.636297
H        -4.401203   -1.922492   -0.053118
H        -3.776667   -0.355732   -0.486422
H        -4.037100   -1.410301    2.391121
H        -5.118765   -0.244759    1.626714
H        -3.439439    0.189929    1.958297
C        -2.061003    2.138164   -0.347169
C        -0.340387    2.476777   -1.950736
C        -1.685467    2.542527   -1.617322
H         0.002018    2.786071   -2.933085
H        -2.410867    2.902444   -2.335340
H        -1.361442    1.341399    1.517893
H        -3.099753    2.171926   -0.040533
C         2.221972    2.387720    1.384078
C         0.931977    0.425339    2.235813
H         0.252322   -0.393593    2.006640
H         0.427656    1.124079    2.904319
H         1.794188    0.012112    2.756563
H         2.590706    2.904582    0.497273
H         3.070654    2.074150    1.992726
H         1.609012    3.087058    1.955619
H         2.512573    0.812127   -0.710761
