20
0 1
H         1.179154   -1.918682   -0.805089
C         0.778557   -1.376166    0.054586
N         1.276539    0.000036   -0.000096
H         1.179279   -1.848818    0.954511
C        -0.778491   -1.376199    0.054703
C         0.778417    0.640789   -1.219168
C         0.778585    0.735418    1.164434
H        -1.179190   -1.918740   -0.804909
H        -1.179062   -1.848861    0.954689
N        -1.276539   -0.000019    0.000079
H         1.179034    1.656538   -1.259218
H         1.179002    0.097758   -2.078528
C        -0.778612    0.640743   -1.219068
C        -0.778456    0.735400    1.164530
H        -1.179294    1.656468   -1.259083
H        -1.179277    0.097673   -2.078367
H        -1.179032    0.262195    2.064230
H        -1.179109    1.751113    1.123911
H         1.179280    0.262194    2.064070
H         1.179213    1.751140    1.123797
