17
0 1
C         0.502615   -0.694569    0.007794
C         0.502613    0.694570    0.007793
C         1.677676    1.415595    0.001875
C         2.870630    0.696068   -0.008608
C         2.870632   -0.696058   -0.008607
C         1.677681   -1.415589    0.001878
C        -0.907375   -1.176801    0.017298
C        -0.907378    1.176795    0.017296
H         1.665209    2.498044    0.001504
H         3.814685    1.226658   -0.018150
H         3.814689   -1.226645   -0.018147
H         1.665217   -2.498038    0.001508
O        -1.341979    2.291003   -0.028384
O        -1.341965   -2.291012   -0.028382
N        -1.669751   -0.000004    0.111163
O        -3.008501   -0.000011   -0.151899
H        -3.454559    0.000105    0.704152
