21
0 2
H         4.511479    1.158316   -0.144295
C         3.450339   -1.169246    0.182286
H         3.409442   -1.788615   -0.718100
H         3.047827   -1.733749    1.023633
N         2.716817    0.075711    0.003474
C         1.334017    0.052676    0.009514
C         0.591310    1.245400    0.100921
C         0.635264   -1.166037   -0.074226
C        -0.785234    1.218474    0.094627
H         1.096103    2.192829    0.213772
C        -0.742690   -1.189696   -0.078663
H         1.168507   -2.101244   -0.155585
C        -1.447203    0.002168    0.001422
H        -1.360029    2.130191    0.174894
H        -1.283481   -2.122471   -0.151668
H         4.490462   -0.932493    0.391052
C         3.439198    1.220830   -0.212177
H         2.956485    2.088193   -0.626383
N        -2.903737   -0.023675   -0.005630
O        -3.493105    1.041697    0.057599
O        -3.454189   -1.109525   -0.074406
