16
0 2
C        -0.452128    0.695778   -0.000066
C        -0.452129   -0.695779    0.000155
C        -1.630969   -1.415388    0.000391
C        -2.821883   -0.696980    0.000401
C        -2.821883    0.696980    0.000180
C        -1.630969    1.415388   -0.000058
C         0.940913    1.196260   -0.000291
C         0.940913   -1.196261    0.000093
H        -1.618453   -2.497743    0.000562
H        -3.766101   -1.227149    0.000584
H        -3.766101    1.227149    0.000194
H        -1.618453    2.497743   -0.000231
O         1.374037   -2.305096    0.000224
O         1.374037    2.305096   -0.000506
N         1.754739    0.000000   -0.000179
O         3.008770    0.000000   -0.000305
