39
0 2
H        -2.127369    3.175368    0.870343
C        -1.091914    2.502935   -1.476681
H        -1.579606    1.650036   -1.958453
H        -0.260299    2.850700   -2.089696
N        -0.620214    2.162197   -0.146638
C         0.554033    1.405591   -0.011544
C         1.234232    1.351402    1.213023
C         1.094326    0.708202   -1.087036
C         2.384151    0.606526    1.353943
H         0.867899    1.913457    2.061363
C         2.263369   -0.034182   -0.953175
H         0.589402    0.708248   -2.042396
C         2.910271   -0.098831    0.272242
H         2.907172    0.567084    2.300927
H         2.641772   -0.566846   -1.814142
H        -1.822006    3.306959   -1.388954
O        -3.256886    0.485473    0.099654
C        -1.573403    2.235675    0.877707
H        -1.185110    1.986976    1.859262
H        -2.472994    1.369554    0.611702
O         4.048532   -0.803335    0.512868
O        -2.380988   -0.325238   -0.613093
C        -2.170779   -1.593697    0.059364
C        -1.224613   -2.320193   -0.883929
C        -3.504007   -2.317601    0.183305
C        -1.526303   -1.366934    1.419812
H        -0.571249   -0.850632    1.314313
H        -1.344686   -2.325868    1.909709
H        -2.182693   -0.776143    2.058858
H        -3.950766   -2.460111   -0.802427
H        -4.193432   -1.735350    0.794025
H        -3.362384   -3.296103    0.647612
H        -1.673014   -2.414928   -1.874498
H        -1.013792   -3.320769   -0.501700
H        -0.282878   -1.777516   -0.973700
C         4.610366   -1.541523   -0.551297
H         5.496596   -2.026203   -0.148146
H         4.901361   -0.888334   -1.380021
H         3.915941   -2.304382   -0.917342
