49
0 2
C        -2.354698    1.507815    0.552175
C        -3.651147    0.789864    0.895144
C        -4.357612    0.213967   -0.332192
H        -4.304204    1.501317    1.404067
H        -3.417509   -0.000417    1.612526
C        -5.737444   -0.378932   -0.032434
H        -3.738307   -0.562783   -0.795090
H        -4.468007    1.007808   -1.077986
C        -5.658265   -1.567178    0.924641
C        -6.429214   -0.782367   -1.332642
N        -2.203119    2.699205    0.881528
C        -1.268634    0.745985   -0.199435
H        -1.706719    0.463550   -1.165939
C        -0.878221   -0.545191    0.531361
C        -0.030075    1.599703   -0.469287
H        -5.862394   -1.565185   -1.846191
H        -6.520936    0.065769   -2.015197
H        -7.432233   -1.170784   -1.142549
H        -5.026262   -2.357342    0.506348
H        -6.648796   -1.993738    1.097096
H        -5.248899   -1.289333    1.897472
H        -0.301151    2.483600   -1.050155
C         1.034048    0.800119   -1.212997
H         0.381325    1.954591    0.479406
H        -1.742104   -1.203004    0.650728
H        -0.511145   -0.299034    1.532651
C         0.209477   -1.293399   -0.232885
H        -0.192829   -1.651758   -1.189783
H         0.565228   -2.154056    0.327360
N         1.344223   -0.427697   -0.496368
H         1.943741    1.378804   -1.332325
H         0.669948    0.536285   -2.214966
C         2.575712   -0.776676   -0.034092
O         2.803431   -1.795046    0.586800
O         3.499802    0.147607   -0.353484
C         4.895526   -0.003606    0.056846
C         5.498175   -1.248709   -0.580844
C         5.541462    1.253769   -0.506140
H         6.606154    1.266563   -0.266892
H         5.078731    2.145286   -0.079712
H         5.428505    1.288730   -1.590941
H         6.570761   -1.276082   -0.376991
H         5.358757   -1.222513   -1.663670
H         5.040826   -2.152904   -0.185883
C         4.996396   -0.024282    1.576609
H         6.048266   -0.000044    1.869266
H         4.536508   -0.919390    1.989032
H         4.506236    0.855499    1.998965
H        -6.340003    0.404214    0.443746
