21
0 2
C        -2.850693   -0.056393    0.010292
C        -2.191783    1.162626   -0.043067
C        -0.803582    1.209961   -0.058555
C        -0.056253    0.038926   -0.022833
C        -0.725548   -1.182063    0.030506
C        -2.111351   -1.231173    0.047958
H        -3.933269   -0.092947    0.022297
H        -2.759432    2.085131   -0.073533
H        -0.287656    2.159956   -0.097699
H        -0.166516   -2.110261    0.061394
H        -2.615044   -2.189516    0.091039
C         1.471792    0.096344   -0.034911
O         1.947086    1.381223   -0.120608
C         2.035273   -0.399327    1.324703
H         1.710836   -1.428501    1.480232
H         3.123960   -0.357404    1.316103
H         1.651890    0.216108    2.137732
C         2.072472   -0.730057   -1.183095
H         1.720138   -0.345874   -2.141024
H         3.160140   -0.663112   -1.152828
H         1.776297   -1.776426   -1.104834
