15
0 2
C        -2.253667    0.277938   -0.021416
C        -1.347298    1.328572    0.016756
C         0.017502    1.075289    0.044463
C         0.484202   -0.232293    0.032392
C        -0.426110   -1.283196   -0.010343
C        -1.789943   -1.031006   -0.035144
H        -3.318112    0.477602   -0.043550
H        -1.704091    2.351577    0.023715
H         0.731257    1.889082    0.068032
H        -0.067772   -2.307777   -0.027645
H        -2.491269   -1.856007   -0.069603
C         1.965770   -0.527994    0.080227
O         2.808741    0.510646   -0.134879
H         2.232974   -1.361333   -0.593634
H         2.244341   -0.922171    1.080107
