30
0 2
O         2.045661   -1.294508   -0.238232
C         3.187065   -0.859296    0.575974
C         3.102704    0.666118    0.575545
C         1.600830    0.903377    0.489043
C         1.178542   -0.222396   -0.468238
C         4.434343   -1.424483    0.024774
H         3.007950   -1.226142    1.590992
H         4.878445   -0.968593   -0.848214
H         4.837922   -2.347876    0.415627
O         3.737950    1.191684   -0.566237
O         1.340903    2.193090    0.017216
N        -0.191390   -0.671775   -0.232748
H         1.256486    0.121449   -1.504427
C        -1.294212    0.135042   -0.142517
C        -0.660711   -1.966101   -0.184591
H         1.140802    0.728172    1.469332
H         3.533937    1.084575    1.490366
H         3.286192    2.018553   -0.780115
H         0.370606    2.265530   -0.101721
N        -1.955976   -2.040608   -0.055303
C        -2.373265   -0.727469   -0.029215
C        -3.636454   -0.127831    0.088580
N        -3.717839    1.208316    0.081295
C        -2.599522    1.921280   -0.033253
N        -1.353318    1.473938   -0.147980
N        -4.763661   -0.849987    0.208430
H        -5.645914   -0.372759    0.280362
H        -4.722088   -1.854794    0.207236
H        -2.723568    2.998808   -0.031002
H         0.022482   -2.797690   -0.242880
