28
0 2
P         0.000884   -0.046920   -0.471134
O        -0.033547   -0.338288   -1.924859
N        -1.166617   -0.996944    0.323743
N        -0.369420    1.485132    0.083629
N         1.524298   -0.298878    0.159392
C         1.825416   -0.117706    1.569697
H         1.660494   -1.035069    2.146894
H         2.873794    0.175291    1.677711
H         1.206685    0.671614    1.992010
C         2.410108   -1.230238   -0.525845
H         3.439827   -0.868508   -0.456360
H         2.367742   -2.232773   -0.081412
H         2.130414   -1.294219   -1.574793
C        -1.757879   -2.129155   -0.383563
H        -2.841186   -2.123181   -0.238572
H        -1.539017   -2.041848   -1.444490
H        -1.358060   -3.075700   -0.007324
C        -1.413250   -0.903289    1.682371
H        -2.165619   -1.556528    2.097829
H        -1.104767   -0.011661    2.203678
C        -1.749132    1.947620   -0.032513
H        -1.918163    2.746209    0.693791
H        -1.961584    2.337980   -1.034682
H        -2.441970    1.137935    0.183408
C         0.594606    2.556113   -0.150954
H         0.470692    3.000143   -1.145623
H         0.448655    3.338607    0.597961
H         1.610138    2.176573   -0.066644
