16
0 1
O        -1.952760    0.092610   -0.135673
O        -0.733396   -0.072370   -0.873797
C         0.387436   -0.000029    0.033931
C         0.396200    1.353278    0.731892
C         0.333656   -1.150166    1.031007
C         1.568395   -0.143868   -0.915319
H         0.417430    2.158163   -0.004592
H        -0.493417    1.472548    1.349782
H         1.276966    1.441879    1.371440
H         0.289249   -2.107597    0.507334
H         1.225728   -1.145008    1.660460
H        -0.538254   -1.060280    1.679207
H         1.531580   -1.102463   -1.435330
H         1.561170    0.655412   -1.657524
H         2.502238   -0.088960   -0.353310
H        -2.397563   -0.740908   -0.330779
