44
0 2
P        -1.425973   -0.209354   -0.289406
O        -0.686610   -0.283746   -1.574442
N        -1.433054    1.269090    0.534429
N        -0.783720   -1.259167    0.828863
N        -3.064401   -0.433385   -0.540707
C        -3.475540   -1.291490   -1.643084
H        -3.682944   -2.315899   -1.307913
H        -4.386061   -0.889379   -2.096493
H        -2.692067   -1.314554   -2.397079
C        -4.070491   -0.269519    0.492208
H        -4.993471    0.108175    0.042292
H        -4.304994   -1.214614    0.998525
H        -3.739809    0.453019    1.236342
C        -2.107524    2.412300   -0.077914
H        -2.877951    2.067102   -0.763101
H        -2.572615    3.021727    0.701577
H        -1.392881    3.033399   -0.625008
C        -0.382475    1.626598    1.419204
H        -0.704764    2.378625    2.143678
H         0.080994    0.767664    1.894148
H         0.512472    2.201513    0.822458
C         0.287900   -2.176642    0.468462
H         1.140673   -2.048926    1.142165
H        -0.056176   -3.215539    0.527256
H         0.619018   -1.968633   -0.544128
C        -1.365520   -1.481102    2.138001
H        -1.905174   -2.434423    2.185681
H        -0.577008   -1.501566    2.897564
H        -2.055237   -0.680470    2.399938
C         4.130456   -1.508395    0.190166
C         3.545666   -1.447307   -1.069692
C         2.771027   -0.354380   -1.424819
C         2.582611    0.699969   -0.534582
C         3.170797    0.635764    0.721795
C         3.937506   -0.465648    1.084850
H         4.732034   -2.364715    0.471103
H         3.684821   -2.260752   -1.772322
H         2.285201   -0.324270   -2.393864
H         3.026237    1.459997    1.409123
H         4.391672   -0.504543    2.068375
C         1.748365    1.888061   -0.957281
O         1.441359    2.788902    0.058203
H         0.846858    1.524760   -1.468231
H         2.304333    2.476324   -1.703068
