46
0 2
P        -1.957780   -0.393521   -0.257223
O        -1.230696   -0.185630   -1.535520
N        -2.391006    0.977478    0.636538
N        -1.022190   -1.245000    0.826009
N        -3.455460   -1.076576   -0.540469
C        -3.626866   -1.912735   -1.721010
H        -3.541015   -2.979611   -1.480065
H        -4.617772   -1.737632   -2.149712
H        -2.875256   -1.653052   -2.462747
C        -4.452585   -1.289527    0.493076
H        -5.451033   -1.151138    0.067920
H        -4.402948   -2.300617    0.915639
H        -4.328925   -0.568213    1.298984
C        -3.405278    1.882396    0.098338
H        -2.936018    2.722585   -0.421172
H        -4.049941    1.349777   -0.596253
H        -4.013526    2.276599    0.916539
C        -1.475742    1.601662    1.523814
H        -1.992479    2.191425    2.284866
H        -0.765781    0.903061    1.955411
H        -0.813286    2.436453    0.947183
C         0.188215   -1.921669    0.379908
H         1.008581   -1.708725    1.071637
H         0.042386   -3.007147    0.336788
H         0.463234   -1.561821   -0.606787
C        -1.521571   -1.689063    2.114640
H        -1.863171   -2.730657    2.084647
H        -0.725102   -1.616834    2.861355
H        -2.347144   -1.062667    2.448702
C         3.554579   -0.120677   -0.131365
C         2.912949   -0.161059   -1.360112
C         1.876677    0.722499   -1.593301
C         1.496891    1.646774   -0.621348
C         2.164853    1.671068    0.597268
C         3.197434    0.782833    0.853824
H         3.218135   -0.888219   -2.098902
H         1.328832    0.675036   -2.526306
H         1.865316    2.394656    1.344015
H         3.726342    0.782084    1.796265
C         0.359688    2.598833   -0.908328
O        -0.101187    3.312352    0.190255
H        -0.443537    2.040089   -1.406305
H         0.697242    3.356779   -1.631608
N         4.636707   -1.077343    0.138114
O         5.163787   -1.045141    1.234879
O         4.942065   -1.853747   -0.747804
