19
0 2
C        -1.546983   -0.121895   -0.151080
C        -0.594308   -0.941594    0.704089
C         0.792443   -0.309044    0.841823
H        -0.512675   -1.938384    0.267007
H        -1.051518   -1.052896    1.692375
C         1.521838   -0.143534   -0.487318
H         1.389766   -0.940928    1.506598
H         0.713850    0.661978    1.342012
C         2.913555    0.454818   -0.321863
N        -2.053356   -0.604201   -1.181869
C        -1.867726    1.290498    0.285919
H        -2.224256    1.288491    1.318498
H        -2.629025    1.727075   -0.357591
H        -0.969668    1.909824    0.242101
H         2.864893    1.444211    0.141144
H         3.417494    0.563644   -1.284114
H         3.541608   -0.175706    0.313118
H         0.927627    0.485412   -1.157584
H         1.592480   -1.118811   -0.979905
