17
0 1
N        -0.601843   -1.052255   -0.366465
H        -0.082637   -1.615208   -1.026677
C         0.181421   -0.250241    0.561499
C         1.534876   -0.915750    0.766718
C         0.358868    1.180284    0.025276
H         2.138530   -0.305390    1.443980
H         1.391010   -1.897853    1.219029
O         1.436040    1.571124   -0.396898
H         2.399182   -0.238098   -0.804205
N        -0.751697    1.937859    0.063343
H        -0.716434    2.857899   -0.347018
H        -1.641370    1.522950    0.317632
C        -1.945185   -1.011620   -0.411986
H        -2.380792   -1.713429   -1.138974
O        -2.632686   -0.277500    0.276738
O         2.190463   -1.121255   -0.467230
H        -0.363123   -0.205095    1.508160
