31
0 1
O        -1.800383    0.549153   -1.301862
C        -2.970726   -0.147027   -0.838164
C        -2.781651   -0.296580    0.669868
C        -2.030630    1.002486    1.027412
C        -1.276882    1.370493   -0.290711
C        -3.116729   -1.426472   -1.622248
H        -3.842668    0.499367   -1.008653
O        -2.059481   -1.425996    1.081710
H        -3.744776   -0.347226    1.178346
H        -1.184577   -1.462764    0.623346
O        -1.210532    0.877517    2.148164
H        -2.752702    1.800034    1.220133
H        -1.115206   -0.072022    2.316457
N         0.159992    1.213920   -0.246526
H        -1.441867    2.423712   -0.537398
C         1.078522    2.224625   -0.431946
N         2.314494    1.826525   -0.400028
C         2.221792    0.467491   -0.185868
C         0.898052    0.067680   -0.086277
N         0.486833   -1.188070    0.123814
C         1.494152   -2.048293    0.227125
N         2.797441   -1.796489    0.142305
C         3.194686   -0.535391   -0.062987
N         4.509467   -0.269372   -0.145659
H         5.168796   -1.021423   -0.041158
H         4.825475    0.674373   -0.289923
H         1.221836   -3.083373    0.403835
H         0.753634    3.242665   -0.588855
H        -3.213947   -1.204237   -2.685402
H        -4.005255   -1.969036   -1.294263
H        -2.246694   -2.065119   -1.475108
