31
0 1
N        -0.226664    1.484204    0.000176
C        -1.331727    0.831241    0.000020
C        -1.430687   -0.626000   -0.000175
N        -0.237390   -1.300435   -0.000186
C         0.967379   -0.619298   -0.000019
C         0.948116    0.784524    0.000162
C         2.157473    1.492619    0.000333
C         2.201609   -1.276539   -0.000022
C         3.387303   -0.565387    0.000148
C         3.372603    0.850269    0.000331
C        -2.619230    1.595359    0.000036
N        -3.720713    0.775898   -0.000133
C        -3.745892   -0.632962   -0.000324
N        -2.539779   -1.297123   -0.000332
O        -4.813262   -1.194311   -0.000470
O        -2.692068    2.797887    0.000182
C         4.655957    1.631837    0.000518
H         5.263867    1.403070    0.879611
H         4.456537    2.702824    0.000635
H         5.263992    1.403286   -0.878545
C         4.694726   -1.303162    0.000139
H         5.292061   -1.044566    0.878052
H         5.292169   -1.044352   -0.877638
H         4.541699   -2.381759   -0.000002
C        -0.247060   -2.761744   -0.000378
H         0.257637   -3.134647   -0.892072
H        -1.282149   -3.085020   -0.000493
H         0.257510   -3.134880    0.891291
H        -4.626328    1.227375   -0.000136
H         2.091785    2.573776    0.000469
H         2.242263   -2.356058   -0.000159
