36
1 1
C         1.203818    1.350606    0.041140
C         1.203827   -1.350602    0.041143
C        -0.321862   -1.248542    0.111663
C        -0.848062   -0.000005    0.818898
C        -0.321870    1.248536    0.111665
H        -0.735595   -1.268287   -0.896934
H        -0.672598   -2.145573    0.625296
H        -0.517248   -0.000007    1.859513
H        -0.735605    1.268281   -0.896931
H        -0.672609    2.145564    0.625301
N         1.770432    0.000003   -0.400915
O         2.723721    0.000006   -1.092956
C         1.636834    2.383951   -0.989371
H         1.150350    3.324569   -0.730817
H         2.713476    2.544147   -0.989445
H         1.316434    2.105296   -1.993957
C         1.851830    1.656934    1.403315
H         2.937601    1.564841    1.358631
H         1.613859    2.695827    1.632885
H         1.470850    1.039985    2.212381
C         1.636852   -2.383947   -0.989364
H         2.713496   -2.544135   -0.989435
H         1.150374   -3.324567   -0.730808
H         1.316452   -2.105297   -1.993951
C         1.851838   -1.656921    1.403320
H         1.613873   -2.695815    1.632893
H         2.937608   -1.564823    1.358639
H         1.470852   -1.039973    2.212383
N        -2.301118   -0.000013    0.872225
C        -3.092965   -0.000009   -0.245363
C        -4.577749    0.000011   -0.006294
H        -5.006310   -0.878395   -0.489610
H        -4.852189   -0.000035    1.048334
H        -5.006271    0.878486   -0.489521
O        -2.609089   -0.000021   -1.362608
H        -2.743992    0.000030    1.775991
