36
1 1
C        -1.203791   -1.350614    0.041145
C        -1.203854    1.350591    0.041139
C         0.321837    1.248562    0.111662
C         0.848063    0.000036    0.818900
C         0.321895   -1.248515    0.111665
H         0.735572    1.268313   -0.896934
H         0.672553    2.145601    0.625294
H         0.517248    0.000028    1.859514
H         0.735628   -1.268249   -0.896932
H         0.672653   -2.145537    0.625299
N        -1.770430   -0.000026   -0.400917
O        -2.723716   -0.000049   -1.092964
C        -1.636789   -2.383974   -0.989359
H        -1.150283   -3.324580   -0.730803
H        -2.713428   -2.544193   -0.989427
H        -1.316400   -2.105316   -1.993947
C        -1.851794   -1.656947    1.403323
H        -2.937567   -1.564875    1.358641
H        -1.613804   -2.695835    1.632898
H        -1.470825   -1.039988    2.212385
C        -1.636897    2.383926   -0.989371
H        -2.713544    2.544096   -0.989441
H        -1.150434    3.324555   -0.730819
H        -1.316495    2.105277   -1.993957
C        -1.851873    1.656901    1.403315
H        -1.613932    2.695801    1.632884
H        -2.937642    1.564778    1.358632
H        -1.470876    1.039964    2.212381
N         2.301118    0.000070    0.872226
C         3.092963    0.000069   -0.245362
C         4.577747   -0.000039   -0.006297
H         4.852191    0.001071    1.048330
H         5.006053   -0.879161   -0.488551
H         5.006520    0.877719   -0.490587
O         2.609086    0.000064   -1.362608
H         2.743993    0.000130    1.775992
