36
1 1
C        -1.203846   -1.350594    0.041140
C        -1.203798    1.350612    0.041142
C         0.321888    1.248521    0.111662
C         0.848062   -0.000027    0.818898
C         0.321844   -1.248556    0.111661
H         0.735620    1.268255   -0.896936
H         0.672641    2.145545    0.625294
H         0.517248   -0.000020    1.859513
H         0.735577   -1.268304   -0.896936
H         0.672566   -2.145593    0.625293
N        -1.770432    0.000019   -0.400915
O        -2.723721    0.000037   -1.092957
C        -1.636885   -2.383932   -0.989369
H        -1.150417   -3.324558   -0.730816
H        -2.713530   -2.544107   -0.989438
H        -1.316484   -2.105282   -1.993955
C        -1.851861   -1.656907    1.403317
H        -2.937630   -1.564791    1.358634
H        -1.613912   -2.695805    1.632887
H        -1.470867   -1.039966    2.212382
C        -1.636802    2.383967   -0.989364
H        -2.713443    2.544180   -0.989431
H        -1.150302    3.324577   -0.730809
H        -1.316412    2.105309   -1.993951
C        -1.851802    1.656945    1.403321
H        -1.613815    2.695833    1.632894
H        -2.937574    1.564868    1.358639
H        -1.470830    1.039987    2.212383
N         2.301117   -0.000052    0.872225
C         3.092964   -0.000055   -0.245363
C         4.577747    0.000033   -0.006293
H         5.006470   -0.877882   -0.490345
H         5.006106    0.878997   -0.488785
H         4.852187   -0.000816    1.048334
O         2.609090   -0.000056   -1.362609
H         2.743991   -0.000094    1.775992
