36
1 1
C         1.203825    1.350601    0.041134
C         1.203817   -1.350603    0.041141
C        -0.321871   -1.248534    0.111661
C        -0.848065    0.000005    0.818896
C        -0.321863    1.248543    0.111662
H        -0.735604   -1.268278   -0.896936
H        -0.672613   -2.145563    0.625295
H        -0.517249    0.000001    1.859511
H        -0.735601    1.268290   -0.896934
H        -0.672595    2.145575    0.625296
N         1.770437   -0.000004   -0.400908
O         2.723743   -0.000009   -1.092926
C         1.636847    2.383937   -0.989384
H         1.150360    3.324557   -0.730842
H         2.713489    2.544136   -0.989451
H         1.316454    2.105272   -1.993969
C         1.851837    1.656935    1.403309
H         2.937608    1.564842    1.358627
H         1.613866    2.695828    1.632878
H         1.470857    1.039988    2.212376
C         1.636836   -2.383947   -0.989369
H         2.713477   -2.544151   -0.989432
H         1.150344   -3.324564   -0.730822
H         1.316447   -2.105287   -1.993956
C         1.851823   -1.656932    1.403320
H         1.613843   -2.695822    1.632896
H         2.937595   -1.564848    1.358640
H         1.470846   -1.039977    2.212382
N        -2.301120    0.000001    0.872224
C        -3.092967    0.000012   -0.245364
C        -4.577750    0.000003   -0.006291
H        -5.006361    0.878214   -0.489913
H        -5.006229   -0.878667   -0.489206
H        -4.852187    0.000391    1.048338
O        -2.609092   -0.000009   -1.362609
H        -2.743992    0.000117    1.775991
