36
1 1
C        -1.203822   -1.350604    0.041142
C        -1.203826    1.350602    0.041144
C         0.321863    1.248540    0.111664
C         0.848062    0.000003    0.818899
C         0.321867   -1.248537    0.111665
H         0.735595    1.268284   -0.896933
H         0.672599    2.145571    0.625297
H         0.517248    0.000003    1.859515
H         0.735601   -1.268281   -0.896932
H         0.672604   -2.145568    0.625298
N        -1.770430   -0.000002   -0.400920
O        -2.723708   -0.000003   -1.092976
C        -1.636839   -2.383954   -0.989363
H        -1.150350   -3.324570   -0.730810
H        -2.713481   -2.544155   -0.989429
H        -1.316449   -2.105301   -1.993952
C        -1.851831   -1.656925    1.403319
H        -2.937602   -1.564824    1.358640
H        -1.613868   -2.695820    1.632889
H        -1.470843   -1.039981    2.212384
C        -1.636848    2.383953   -0.989358
H        -2.713491    2.544150   -0.989422
H        -1.150362    3.324569   -0.730804
H        -1.316458    2.105303   -1.993948
C        -1.851835    1.656919    1.403322
H        -1.613875    2.695814    1.632893
H        -2.937605    1.564813    1.358645
H        -1.470844    1.039974    2.212386
N         2.301117    0.000008    0.872225
C         3.092963    0.000004   -0.245363
C         4.577746   -0.000007   -0.006296
H         5.006280   -0.878453   -0.489563
H         5.006294    0.878428   -0.489571
H         4.852188   -0.000004    1.048333
O         2.609087    0.000013   -1.362609
H         2.743992   -0.000028    1.775991
