32
1 1
C        -2.798739    1.389427    0.142417
C        -1.914908    2.464155    0.073062
C        -0.598455    2.225783   -0.225558
N        -0.165571    0.968037   -0.441711
C        -0.994192   -0.072306   -0.386099
C        -2.336969    0.106527   -0.099241
C        -3.150534   -1.163236   -0.002556
O        -2.577874   -2.211533    0.194955
N        -4.489579   -1.038889   -0.119562
C         1.317873    0.750314   -0.711236
C         2.127267    0.870211    0.589194
C         2.190158   -0.592224    1.036585
C         2.242264   -1.361577   -0.284073
O         1.510510   -0.506072   -1.216224
H         1.598620    1.517023   -1.433993
C         3.623765   -1.642952   -0.828611
H         1.664643   -2.285070   -0.205600
H         3.544424   -2.093540   -1.817767
H         4.145083   -2.346754   -0.176355
H         4.211113   -0.728564   -0.905639
O         0.968406   -0.803620    1.725176
H         3.057549   -0.792096    1.670196
O         3.366557    1.409566    0.210447
H         1.622622    1.475680    1.346118
H         3.909950    1.580035    0.985991
H         0.934268   -1.690736    2.096276
H        -4.934507   -0.211790   -0.479615
H        -5.037042   -1.886310   -0.079177
H        -0.578880   -1.050626   -0.567283
H         0.142437    3.011031   -0.300535
H        -2.245888    3.477262    0.253777
H        -3.834321    1.568952    0.404376
