36
1 1
C         1.203821    1.350603    0.041138
C         1.203820   -1.350603    0.041139
C        -0.321868   -1.248538    0.111662
C        -0.848066    0.000001    0.818897
C        -0.321867    1.248539    0.111661
H        -0.735603   -1.268283   -0.896934
H        -0.672605   -2.145569    0.625295
H        -0.517249    0.000001    1.859511
H        -0.735602    1.268283   -0.896935
H        -0.672604    2.145570    0.625293
N         1.770437   -0.000000   -0.400908
O         2.723740   -0.000000   -1.092929
C         1.636842    2.383939   -0.989378
H         1.150352    3.324559   -0.730837
H         2.713484    2.544141   -0.989442
H         1.316453    2.105275   -1.993964
C         1.851831    1.656934    1.403315
H         2.937603    1.564845    1.358632
H         1.613857    2.695825    1.632887
H         1.470854    1.039983    2.212380
C         1.636841   -2.383940   -0.989376
H         2.713483   -2.544143   -0.989440
H         1.150351   -3.324559   -0.730834
H         1.316452   -2.105276   -1.993962
C         1.851831   -1.656933    1.403316
H         1.613856   -2.695824    1.632889
H         2.937603   -1.564844    1.358634
H         1.470853   -1.039981    2.212381
N        -2.301120    0.000001    0.872224
C        -3.092967    0.000000   -0.245363
C        -4.577750    0.000002   -0.006292
H        -5.006300   -0.878417   -0.489595
H        -4.852188   -0.000034    1.048337
H        -5.006287    0.878464   -0.489529
O        -2.609091   -0.000005   -1.362608
H        -2.743994   -0.000000    1.775991
