36
1 1
C         1.203822    1.350603    0.041141
C         1.203823   -1.350603    0.041141
C        -0.321865   -1.248539    0.111660
C        -0.848062   -0.000001    0.818897
C        -0.321867    1.248538    0.111662
H        -0.735597   -1.268281   -0.896937
H        -0.672602   -2.145570    0.625292
H        -0.517248   -0.000002    1.859512
H        -0.735599    1.268279   -0.896936
H        -0.672605    2.145568    0.625294
N         1.770432    0.000001   -0.400915
O         2.723722    0.000001   -1.092956
C         1.636842    2.383951   -0.989365
H         1.150354    3.324568   -0.730813
H         2.713485    2.544149   -0.989431
H         1.316450    2.105296   -1.993953
C         1.851830    1.656926    1.403320
H         2.937601    1.564831    1.358638
H         1.613860    2.695819    1.632891
H         1.470847    1.039977    2.212383
C         1.636845   -2.383949   -0.989367
H         2.713488   -2.544145   -0.989432
H         1.150359   -3.324567   -0.730816
H         1.316453   -2.105294   -1.993954
C         1.851832   -1.656926    1.403319
H         1.613864   -2.695819    1.632890
H         2.937603   -1.564830    1.358637
H         1.470848   -1.039978    2.212382
N        -2.301117   -0.000002    0.872225
C        -3.092964    0.000001   -0.245363
C        -4.577747   -0.000002   -0.006293
H        -5.006293    0.878427   -0.489582
H        -5.006284   -0.878454   -0.489546
H        -4.852187    0.000018    1.048336
O        -2.609090    0.000002   -1.362609
H        -2.743991    0.000003    1.775992
