36
1 1
C         1.203794    1.350614    0.041135
C         1.203847   -1.350593    0.041140
C        -0.321843   -1.248556    0.111658
C        -0.848065   -0.000030    0.818896
C        -0.321892    1.248520    0.111663
H        -0.735575   -1.268307   -0.896939
H        -0.672568   -2.145593    0.625289
H        -0.517248   -0.000030    1.859510
H        -0.735630    1.268258   -0.896932
H        -0.672644    2.145544    0.625298
N         1.770438    0.000020   -0.400906
O         2.723747    0.000038   -1.092921
C         1.636792    2.383957   -0.989384
H         1.150293    3.324570   -0.730838
H         2.713432    2.544172   -0.989458
H         1.316397    2.105289   -1.993967
C         1.851801    1.656960    1.403310
H         2.937574    1.564894    1.358625
H         1.613804    2.695847    1.632882
H         1.470837    1.040002    2.212376
C         1.636889   -2.383923   -0.989373
H         2.713536   -2.544096   -0.989443
H         1.150426   -3.324554   -0.730824
H         1.316486   -2.105273   -1.993958
C         1.851860   -1.656908    1.403319
H         1.613902   -2.695803    1.632894
H         2.937630   -1.564801    1.358637
H         1.470871   -1.039961    2.212381
N        -2.301120   -0.000072    0.872224
C        -3.092968   -0.000050   -0.245363
C        -4.577751    0.000043   -0.006291
H        -5.006166    0.878798   -0.489110
H        -5.006423   -0.878082   -0.490011
H        -4.852188   -0.000443    1.048338
O        -2.609092   -0.000079   -1.362608
H        -2.743993    0.000055    1.775991
