37
0 1
C        -1.440334   -1.234958    0.054180
C        -1.071127    1.297725   -0.145823
C         0.366143    1.008983   -0.589869
C         0.920279   -0.286383   -0.009985
C         0.011488   -1.441354   -0.393256
H         0.392314    0.937148   -1.682382
H         1.002908    1.845463   -0.295210
H         0.991168   -0.199453    1.074013
H         0.024457   -1.553198   -1.483962
H         0.381199   -2.374912    0.038448
N        -1.872987    0.088370   -0.451454
O        -3.209124    0.314700   -0.000855
C        -2.310682   -2.282412   -0.645299
H        -1.933076   -3.285488   -0.435129
H        -3.341069   -2.229640   -0.293274
H        -2.298788   -2.123547   -1.725361
C        -1.585625   -1.423346    1.572459
H        -2.569687   -1.087095    1.897834
H        -1.490568   -2.483661    1.816733
H        -0.831910   -0.887047    2.144798
C        -1.627635    2.426193   -1.017568
H        -2.621174    2.725077   -0.681846
H        -0.974918    3.299649   -0.959362
H        -1.688386    2.104807   -2.059225
C        -1.120508    1.751349    1.321562
H        -0.734526    2.769865    1.396674
H        -2.149409    1.749429    1.680804
H        -0.519183    1.131544    1.982992
H        -3.723932    0.339655   -0.811879
N         2.275074   -0.543614   -0.472006
C         3.362574   -0.013034    0.146498
C         4.699596   -0.326587   -0.483968
H         5.178254    0.611016   -0.768652
H         5.331971   -0.804801    0.264306
H         4.628188   -0.973166   -1.359457
O         3.272331    0.667863    1.151798
H         2.400892   -1.042499   -1.337784
