36
1 1
C        -1.203818   -1.350602    0.041139
C        -1.203824    1.350601    0.041135
C         0.321865    1.248541    0.111663
C         0.848064    0.000003    0.818896
C         0.321870   -1.248536    0.111662
H         0.735602    1.268288   -0.896933
H         0.672597    2.145573    0.625297
H         0.517249   -0.000000    1.859511
H         0.735604   -1.268281   -0.896935
H         0.672609   -2.145565    0.625296
N        -1.770436   -0.000003   -0.400908
O        -2.723742   -0.000005   -1.092928
C        -1.636837   -2.383945   -0.989372
H        -1.150346   -3.324563   -0.730825
H        -2.713479   -2.544149   -0.989437
H        -1.316447   -2.105285   -1.993959
C        -1.851826   -1.656932    1.403318
H        -2.937598   -1.564846    1.358636
H        -1.613847   -2.695822    1.632892
H        -1.470848   -1.039978    2.212381
C        -1.636845    2.383938   -0.989380
H        -2.713487    2.544138   -0.989447
H        -1.150358    3.324558   -0.730836
H        -1.316452    2.105276   -1.993965
C        -1.851835    1.656933    1.403312
H        -1.613863    2.695825    1.632882
H        -2.937607    1.564841    1.358629
H        -1.470856    1.039983    2.212377
N         2.301120    0.000001    0.872224
C         3.092967    0.000009   -0.245364
C         4.577750    0.000000   -0.006292
H         5.006248   -0.878598   -0.489318
H         5.006341    0.878283   -0.489803
H         4.852187    0.000265    1.048338
O         2.609091   -0.000002   -1.362609
H         2.743993    0.000074    1.775991
