37
0 1
C        -1.440334   -1.234958    0.054181
C        -1.071126    1.297725   -0.145823
C         0.366144    1.008982   -0.589869
C         0.920279   -0.286384   -0.009986
C         0.011487   -1.441355   -0.393257
H         0.392315    0.937147   -1.682382
H         1.002910    1.845461   -0.295209
H         0.991168   -0.199455    1.074013
H         0.024456   -1.553198   -1.483963
H         0.381198   -2.374913    0.038447
N        -1.872986    0.088370   -0.451454
O        -3.209124    0.314701   -0.000855
C        -2.310684   -2.282411   -0.645298
H        -1.933080   -3.285487   -0.435126
H        -3.341071   -2.229636   -0.293275
H        -2.298788   -2.123548   -1.725361
C        -1.585626   -1.423345    1.572460
H        -2.569690   -1.087100    1.897833
H        -1.490561   -2.483659    1.816734
H        -0.831915   -0.887040    2.144799
C        -1.627634    2.426192   -1.017569
H        -2.621174    2.725076   -0.681847
H        -0.974917    3.299648   -0.959363
H        -1.688385    2.104805   -2.059226
C        -1.120507    1.751350    1.321562
H        -0.734532    2.769868    1.396673
H        -2.149407    1.749423    1.680806
H        -0.519176    1.131550    1.982991
H        -3.723931    0.339658   -0.811879
N         2.275074   -0.543615   -0.472006
C         3.362574   -0.013035    0.146498
C         4.699596   -0.326587   -0.483966
H         5.178254    0.611016   -0.768652
H         5.331971   -0.804799    0.264308
H         4.628189   -0.973168   -1.359454
O         3.272329    0.667864    1.151797
H         2.400893   -1.042502   -1.337783
