46
0 2
C        -1.568501    2.420509    1.369538
H        -1.180182    2.217883    2.370741
H        -2.043423    3.406835    1.392814
H        -2.340776    1.678353    1.155471
C        -0.941513    2.769539   -1.616357
H        -1.726329    2.055503   -1.876357
H        -1.386582    3.770007   -1.619180
H        -0.185287    2.742222   -2.404793
C         1.136506    3.619875    0.496869
H         1.947070    3.603974   -0.236031
H         0.729317    4.636127    0.517697
H         1.572698    3.419432    1.478636
Si       -0.204672    2.361163    0.070632
C        -2.620951   -1.400276    1.199561
C        -1.462676   -1.244650    0.450682
C        -1.523570   -1.039566   -0.932645
C        -2.738983   -0.995279   -1.578588
C        -3.912750   -1.151733   -0.837650
C        -3.844034   -1.352966    0.533512
H        -2.589787   -1.539951    2.272200
H        -2.786510   -0.831689   -2.649624
H        -4.875327   -1.109946   -1.331480
H        -4.758416   -1.465229    1.104086
C        -0.114030   -0.912723   -1.449110
C         0.674889   -0.666262   -0.162634
H         0.478464    0.697618   -0.007082
N        -0.134299   -1.251964    0.872072
H         0.013736   -0.101308   -2.168546
C         0.200021   -1.055366    2.260250
H         0.099689   -0.005641    2.568577
H        -0.448654   -1.666143    2.887172
H         1.225404   -1.373504    2.443391
Si        2.543042   -0.866705   -0.196059
C         3.031414   -2.670697   -0.012683
H         2.693421   -3.077385    0.943454
H         2.586337   -3.280496   -0.802536
H         4.116397   -2.795583   -0.064396
C         3.362691    0.164757    1.144445
H         4.447424    0.163952    1.007110
H         3.024470    1.202448    1.095650
H         3.161876   -0.204289    2.151723
C         3.089745   -0.200184   -1.863986
H         2.765507    0.835562   -1.995950
H         4.178845   -0.218597   -1.952716
H         2.679726   -0.785725   -2.689929
H         0.194252   -1.842959   -1.945859
