49
0 2
C        -0.115620   -0.282662    2.629980
C        -1.242763    0.380986    3.028134
H        -2.185554   -0.137581    3.157710
Si        0.034566   -0.025122    0.105056
H         0.822849    0.261342    2.682342
H        -1.252436    1.457385    3.140986
Si       -0.448524    2.237814   -0.232907
Si       -1.607948   -1.419920   -0.805088
Si        2.281013   -0.530855   -0.341432
C         0.636235    3.278066    0.906793
H         0.422669    4.343721    0.784340
H         0.473436    3.024302    1.956861
H         1.696753    3.126444    0.690353
C        -0.125629    2.762418   -2.015210
H        -0.384364    3.816406   -2.155094
H         0.922049    2.635029   -2.292511
H        -0.726144    2.176200   -2.714513
C        -2.261829    2.586630    0.145187
H        -2.466756    3.659079    0.078557
H        -2.915247    2.081730   -0.570410
H        -2.542002    2.250969    1.145171
C        -1.983203   -0.919278   -2.585137
H        -1.092318   -0.981029   -3.214369
H        -2.745880   -1.573861   -3.017781
H        -2.356312    0.106154   -2.638903
C        -1.087792   -3.230330   -0.789009
H        -0.835738   -3.568487    0.218258
H        -1.904730   -3.858222   -1.156596
H        -0.219225   -3.407607   -1.425235
C        -3.192507   -1.251829    0.201633
H        -3.053511   -1.607416    1.224578
H        -3.528740   -0.214739    0.256535
H        -3.994663   -1.842272   -0.250741
C         3.304077   -0.136811    1.194444
H         3.017805   -0.761914    2.043417
H         4.366685   -0.309161    1.000350
H         3.187788    0.907250    1.495785
C         2.520395   -2.351623   -0.762799
H         3.586613   -2.580543   -0.848962
H         2.098488   -3.009246    0.000020
H         2.049398   -2.604198   -1.715146
C         2.967362    0.500480   -1.763465
H         4.004863    0.219768   -1.968680
H         2.392725    0.357719   -2.681107
H         2.954539    1.566267   -1.524851
C        -0.001661   -1.782861    2.761408
H         0.765328   -2.201466    2.109321
H         0.260097   -2.044800    3.791581
H        -0.948331   -2.273197    2.528156
