32
0 2
C        -2.776654    1.261590    0.010813
C        -1.628901    0.480968    0.038260
C        -1.695905   -0.915657    0.017598
C        -2.919943   -1.546981   -0.013403
C        -4.085669   -0.778055   -0.030909
C        -4.005986    0.607938   -0.020931
H        -2.729327    2.342882    0.008565
H        -2.980521   -2.629618   -0.028131
H        -5.053194   -1.263244   -0.057974
H        -4.915577    1.196361   -0.042271
C        -0.291492   -1.461587    0.038108
C         0.565521   -0.212042    0.014711
N        -0.301296    0.882433    0.084963
H        -0.094965   -2.120234   -0.816449
C         0.093839    2.263124   -0.017095
H         0.050900    2.626428   -1.050823
H        -0.558370    2.884741    0.598423
H         1.110241    2.383813    0.351687
Si         2.413832   -0.171798   -0.009760
C         3.139668    0.541973    1.577205
H         2.853309    1.585124    1.732322
H         2.801900   -0.023477    2.448878
H         4.232661    0.503432    1.554351
C         3.085964    0.830228   -1.456350
H         4.178863    0.789348   -1.476008
H         2.718423    0.438052   -2.407378
H         2.799744    1.882903   -1.400275
C         2.973475   -1.956012   -0.182973
H         2.607493   -2.403333   -1.110181
H         4.064765   -2.014816   -0.195854
H         2.619947   -2.571552    0.647695
H        -0.114359   -2.071587    0.935115
