13
0 1
C        -1.853663    0.133504    0.000003
C        -0.860887    0.979891   -0.000021
C        -2.847384   -0.695426    0.000046
C         0.563821    0.585201   -0.000016
O         1.470729    1.377619   -0.000018
O         0.740398   -0.742190   -0.000003
C         2.099080   -1.186135    0.000002
H         2.051197   -2.271720   -0.000103
H         2.618164   -0.824530   -0.887527
H         2.618095   -0.824705    0.887644
H        -3.272213   -1.056697    0.929608
H        -3.272233   -1.056764   -0.929480
H        -1.037826    2.048776   -0.000061
