52
0 2
Si        2.144172   -0.028602   -0.141123
C         3.733182    1.011500   -0.220520
C         3.616966    2.379135    0.468479
C         0.725674    0.918358   -0.967372
C         1.007103    1.390096   -2.396181
C         1.692674   -0.370679    1.664634
C         2.765726   -1.123571    2.456182
C         1.792618   -2.520884   -1.150182
C         0.685990   -2.991287   -0.533216
C        -0.715361   -2.747079   -0.998053
C        -1.597158   -2.084570    0.063281
C        -3.890389   -1.077114    0.598482
C        -3.001335   -1.767950   -0.438452
C        -3.336135    0.237160    1.154213
C        -3.071023    1.306505    0.099365
C        -2.487311    2.589428    0.680878
C        -2.195207    3.643547   -0.380587
H         4.550604    0.437632    0.226819
H         4.010120    1.146384   -1.270624
H         3.385230    2.273631    1.531197
H         4.547742    2.947857    0.392515
H         2.826044    2.987117    0.021905
H         0.477457    1.778902   -0.334094
H        -0.162288    0.281539   -0.956825
H         0.150742    1.918486   -2.823043
H         1.861033    2.070786   -2.433649
H         1.234340    0.549502   -3.057228
H         0.756593   -0.935799    1.680776
H         1.472053    0.587262    2.151407
H         2.979218   -2.096858    2.006580
H         3.706076   -0.567438    2.487786
H         2.457258   -1.300306    3.489459
H         1.728454   -2.078466   -2.138052
H         2.781007   -2.821702   -0.827886
H         0.798110   -3.538037    0.400396
H        -0.695623   -2.125468   -1.899578
H        -1.176883   -3.698773   -1.291305
H        -1.657990   -2.734068    0.944516
H        -1.111540   -1.166313    0.399718
H        -4.063775   -1.765448    1.432842
H        -4.872090   -0.888955    0.150437
H        -3.487185   -2.695476   -0.759500
H        -2.927100   -1.144980   -1.336062
H        -4.044641    0.631634    1.890317
H        -2.411268    0.044717    1.708141
H        -2.379969    0.923377   -0.657586
H        -4.003742    1.535601   -0.430526
H        -3.176896    2.997680    1.427658
H        -1.564746    2.347179    1.220080
H        -1.774305    4.550834    0.058205
H        -1.480928    3.267977   -1.118112
H        -3.105614    3.924846   -0.916667
