22
0 2
Si         0.000000   -0.444724   -0.476468
C         1.545248   -1.007362    0.462658
C         2.871964   -0.522323   -0.128223
C         0.000000    1.438635   -0.679575
C         0.000003    2.197552    0.655608
C        -1.545250   -1.007362    0.462657
C        -2.871965   -0.522320   -0.128221
H         1.447552   -0.655565    1.497967
H         1.536550   -2.100076    0.521239
H         2.925241    0.568968   -0.150577
H         3.725253   -0.877709    0.454226
H         3.003854   -0.874912   -1.154045
H        -0.871671    1.727682   -1.273984
H         0.871668    1.727682   -1.273989
H         0.000002    3.279537    0.500368
H        -0.880504    1.954453    1.255557
H         0.880514    1.954455    1.255551
H        -1.447552   -0.655570    1.497967
H        -1.536553   -2.100077    0.521233
H        -2.925241    0.568971   -0.150569
H        -3.003855   -0.874903   -1.154046
H        -3.725254   -0.877709    0.454226
