52
0 1
C         0.648515    2.595486    0.372267
C         0.454737    1.219425    1.068884
C        -2.159434    1.240983   -0.618617
H         1.718715    2.748151    0.211489
C        -0.587405    1.260160    2.206608
H        -0.789025    0.241109    2.553836
H        -0.132694    1.779780    3.057228
H        -3.019167    1.061373   -1.270909
H         1.406096    0.968557    1.545342
C        -1.905050    1.960336    1.892457
H        -2.501439    1.990179    2.809800
H        -1.706447    3.006320    1.643697
C        -2.762621    1.337717    0.795260
H        -3.086016    0.343847    1.117840
H        -3.678084    1.934339    0.719348
C        -1.551361    2.587083   -1.090917
H        -1.809456    2.725056   -2.145408
C        -0.029921    2.759765   -0.994540
H         0.442043    2.064304   -1.698271
H         0.214946    3.755587   -1.376630
H        -2.046952    3.406632   -0.559934
H         0.328971    3.397078    1.045551
C        -1.195459    0.052639   -0.817483
H        -0.918235    0.004004   -1.881314
Si        -1.954158   -1.683254   -0.572626
C        -1.750482   -2.306047    1.191795
H        -2.286394   -1.692944    1.919077
H        -2.132967   -3.327000    1.276736
H        -0.695364   -2.326109    1.477899
C        -1.069656   -2.875916   -1.719975
H        -1.458103   -3.891314   -1.604126
H        -1.198555   -2.587650   -2.766603
H         0.000569   -2.892494   -1.507708
C        -3.779712   -1.656204   -1.026194
H        -3.924963   -1.310590   -2.053080
H        -4.197180   -2.664491   -0.957088
H        -4.367176   -1.009637   -0.371484
B         0.144835    0.147447   -0.038853
C         3.442748   -0.385549   -0.262029
H         4.362121   -0.578298    0.272850
C         2.298320   -0.910683    0.191830
O         1.116193   -0.760069   -0.439260
O         2.130331   -1.678175    1.283474
C         3.274625   -1.979706    2.063022
H         3.728165   -1.066389    2.457180
H         2.923191   -2.599549    2.883887
H         4.011744   -2.530690    1.473416
C         3.509648    0.442697   -1.452254
C         4.615907    1.032385   -1.903800
H         4.604611    1.636487   -2.801593
H         5.566325    0.927979   -1.391294
H         2.582168    0.573224   -2.000294
