13
0 1
C        -1.853682    0.133494    0.000029
C        -0.860892    0.979861    0.000119
C        -2.847416   -0.695420   -0.000090
C         0.563820    0.585186    0.000072
O         1.470709    1.377630    0.000162
O         0.740423   -0.742191   -0.000087
C         2.099123   -1.186113   -0.000145
H         2.618156   -0.824707    0.887494
H         2.051247   -2.271698   -0.000290
H         2.618158   -0.824470   -0.887687
H        -1.037829    2.048748    0.000254
H        -3.272266   -1.056839    0.929404
H        -3.272249   -1.056597   -0.929686
