55
0 2
C         1.520863   -0.380049   -1.733557
C         2.652956    0.055405   -1.114186
F         2.836929    1.409008   -1.065865
Si       -0.405025    0.004733   -0.085605
H         1.053230    0.349694   -2.385810
Si       -0.021710    2.027234    1.034959
Si       -0.481432   -1.803194    1.401387
Si       -2.392704    0.108217   -1.324004
C         1.430656    1.846787    2.222950
H         1.583958    2.773255    2.783822
H         1.265828    1.044857    2.946441
H         2.353128    1.632357    1.679735
C         0.344269    3.427097   -0.167466
H         0.499730    4.362895    0.377706
H         1.244800    3.218372   -0.746331
H        -0.480381    3.582729   -0.865877
C        -1.558379    2.492603    2.029229
H        -1.831170    1.714637    2.744915
H        -1.386358    3.418029    2.587330
H        -2.417900    2.657027    1.374905
C         1.234884   -2.277362    2.022580
H         1.156965   -3.058951    2.783937
H         1.864850   -2.661291    1.218358
H         1.750706   -1.425649    2.471047
C        -1.532318   -1.366762    2.906655
H        -2.538899   -1.056924    2.618200
H        -1.623340   -2.229023    3.574187
H        -1.084607   -0.550547    3.478261
C        -1.241435   -3.313767    0.564857
H        -1.262767   -4.162375    1.254784
H        -0.670919   -3.615527   -0.316249
H        -2.268416   -3.122317    0.245880
C        -3.885967   -0.146531   -0.197573
H        -3.911305    0.596449    0.602586
H        -4.816688   -0.059582   -0.766448
H        -3.873029   -1.134419    0.268344
C        -2.565209    1.788507   -2.160722
H        -3.458781    1.810849   -2.791274
H        -2.657943    2.592074   -1.426907
H        -1.704577    2.016092   -2.794072
C        -2.436618   -1.220027   -2.662865
H        -1.650921   -1.066839   -3.406531
H        -2.312170   -2.221160   -2.244180
H        -3.395978   -1.196397   -3.188006
C         1.319944   -1.830964   -2.099355
H         1.918359   -2.092844   -2.977351
H         1.604078   -2.503217   -1.290138
H         0.276647   -2.030490   -2.337523
C         3.646181   -0.667773   -0.284602
C         5.092377   -0.391304   -0.702545
H         3.437179   -1.735924   -0.338747
H         3.508029   -0.374517    0.764031
H         5.273603   -0.724222   -1.726402
H         5.786985   -0.916135   -0.044391
H         5.314670    0.674916   -0.650161
