9
0 1
C         1.090367   -0.345843   -0.000015
C         0.716451    0.953013    0.000006
C        -0.716453    0.953010    0.000002
C        -1.090368   -0.345845   -0.000012
H        -1.372563    1.807894    0.000005
H         1.372557    1.807898    0.000010
H         2.044827   -0.843233   -0.000018
O         0.000003   -1.151916    0.000017
H        -2.044823   -0.843245   -0.000016
