13
0 2
Si         0.000005   -0.000028   -0.426864
C        -0.307638    1.757484    0.177092
H        -0.313369    1.788885    1.272452
H         0.468704    2.441361   -0.171760
H        -1.269916    2.137149   -0.172143
C        -1.368214   -1.145141    0.177246
H        -1.392469   -1.165789    1.272608
H        -2.348650   -0.814706   -0.171542
H        -1.215960   -2.168349   -0.171975
C         1.675845   -0.612306    0.177232
H         1.879954   -1.626595   -0.171555
H         2.485803    0.031197   -0.172000
H         1.705869   -0.622985    1.272592
