13
0 2
C        -1.183251   -1.335380    0.177359
H        -1.204306   -1.359211    1.272723
H        -2.201823   -1.154143   -0.171579
H        -0.880817   -2.324730   -0.171655
C         1.748137   -0.357006    0.177127
H         2.100418   -1.329775   -0.171743
H         2.453661    0.399541   -0.172107
H         1.779489   -0.363178    1.272486
C        -0.564864    1.692434    0.177068
H         0.101359    2.483883   -0.171999
H        -1.572887    1.925101   -0.171998
H        -0.574986    1.722766    1.272427
Si        -0.000017   -0.000039   -0.426848
