15
0 1
H         0.950155   -0.000001    1.731616
C        -1.485089    0.000002   -0.340697
C        -0.006034    0.000000    0.012723
H        -1.970740   -0.884249    0.075009
H        -1.970738    0.884255    0.075008
H        -1.624418    0.000001   -1.423533
C         0.680609    1.256921   -0.515092
C         0.680606   -1.256923   -0.515092
H         1.736674    1.271214   -0.229569
H         0.629860    1.304963   -1.605242
H         0.202718    2.147665   -0.104039
H         0.629857   -1.304964   -1.605242
H         1.736671   -1.271218   -0.229568
H         0.202712   -2.147665   -0.104039
O         0.032087    0.000000    1.446068
