14
0 1
C        -1.736156    0.382160   -0.223356
H        -1.777930    0.391108   -1.315790
H        -2.452213   -0.363365    0.130350
H        -2.072903    1.359613    0.129970
C         1.199093    1.312440   -0.223148
H         0.911579    2.305340    0.130597
H         2.213910    1.115189    0.130252
H         1.227842    1.344216   -1.315578
C         0.537138   -1.694627   -0.223154
H         1.540718   -1.942022    0.130790
H        -0.141105   -2.474931    0.130069
H         0.550526   -1.735376   -1.315584
Si        -0.000051    0.000026    0.379535
H        -0.000159    0.000028    1.869382
