32
0 2
C        -2.432165    1.102509    0.593191
C        -1.458174    0.619178   -0.273805
C        -1.439913   -0.731510   -0.706011
C        -2.451780   -1.596012   -0.269300
C        -3.428163   -1.112676    0.580509
C        -3.416671    0.221576    1.010923
H        -2.426909    2.130119    0.934937
H        -2.462633   -2.631176   -0.589812
H        -4.213342   -1.773610    0.926886
H        -4.190310    0.569808    1.684266
C        -0.292047   -0.888027   -1.531598
C         0.396338    0.323261   -1.516011
H         1.123639    0.669119   -2.234281
N        -0.385410    1.265540   -0.845049
H         0.018019   -1.777411   -2.055907
Si        2.224256   -0.258445    0.265663
C         1.139319   -0.455333    1.789842
H         0.256306   -1.059659    1.576557
H         1.700591   -0.947068    2.591954
H         0.794491    0.508299    2.170932
C         3.701497    0.851258    0.676974
H         4.307968    0.404555    1.473370
H         4.349806    0.994848   -0.190468
H         3.379988    1.837061    1.020450
C         2.854958   -1.940041   -0.301020
H         3.455227   -1.862278   -1.210745
H         3.483329   -2.395743    0.471375
H         2.025685   -2.621252   -0.500562
C         0.062405    2.588234   -0.493796
H         0.545085    2.605853    0.490239
H         0.778986    2.934532   -1.237573
H        -0.781247    3.278962   -0.484956
