13
0 2
Si        -0.000019    0.000046   -0.426845
C         0.877175   -1.553713    0.176987
H         1.911053   -1.589924   -0.172124
H         0.892947   -1.581588    1.272343
H         0.374049   -2.457655   -0.172075
C        -1.784123    0.017183    0.177263
H        -1.816010    0.017307    1.272627
H        -2.315429    0.904932   -0.171604
H        -2.332493   -0.860011   -0.171900
C         0.906972    1.536471    0.177300
H         0.421346    2.450011   -0.171561
H         0.923309    1.563802    1.272663
H         1.941347    1.552827   -0.171839
