32
0 2
C        -2.671904   -0.100177    0.681497
C        -1.617665    0.382886   -0.088012
C        -0.824140   -0.467414   -0.884008
C        -1.110534   -1.827765   -0.921547
C        -2.168890   -2.315102   -0.171082
C        -2.936632   -1.458548    0.625209
H        -3.266259    0.556826    1.304352
H        -0.505714   -2.499096   -1.520234
H        -2.403106   -3.372212   -0.194476
H        -3.753184   -1.864797    1.209762
C         0.236302    0.352555   -1.459930
C        -0.079400    1.664568   -1.106681
H         0.411647    2.586780   -1.371219
N        -1.146453    1.670578   -0.224378
C        -1.662204    2.818700    0.476089
H        -2.737844    2.920798    0.312919
H        -1.475971    2.745874    1.552123
H        -1.171317    3.714487    0.099367
H         0.797539    0.093487   -2.343711
Si        2.123625   -0.257054    0.142244
C         2.930084   -1.965525    0.237774
H         3.639107   -2.019463    1.071980
H         2.177407   -2.742122    0.392532
H         3.474818   -2.204700   -0.678342
C         3.441975    1.060550   -0.156496
H         4.150148    1.107874    0.677391
H         4.013469    0.857733   -1.065418
H         2.988976    2.049852   -0.259474
C         1.252077    0.097775    1.774372
H         0.794507    1.089548    1.770452
H         0.464065   -0.632277    1.970795
H         1.961726    0.061105    2.607319
