19
0 1
C        -0.658362   -1.464997   -0.000017
C         0.150308   -0.329019   -0.000015
C        -0.386731    0.977912   -0.000027
C        -1.776459    1.138046   -0.000047
C        -2.580947    0.016478   -0.000046
C        -2.026260   -1.273611   -0.000030
H        -0.235264   -2.462186   -0.000015
H        -2.213960    2.129582   -0.000058
H        -3.658349    0.128211   -0.000060
H        -2.684089   -2.134240   -0.000032
C         0.727159    1.880787   -0.000010
C         1.853562    1.115398    0.000001
H         2.890818    1.412767    0.000007
N         1.521661   -0.222082   -0.000026
C         2.444027   -1.331783    0.000149
H         2.307789   -1.953131    0.888726
H         2.308174   -1.953121   -0.888494
H         3.462338   -0.946811    0.000374
H         0.693134    2.958234   -0.000019
