16
0 1
C        -0.216118    1.462827    0.002786
C         0.849607    0.501151    0.007779
C         0.530491   -0.844545   -0.000370
N        -0.691551   -1.429674    0.005681
C        -1.664533   -0.567206   -0.003710
N        -1.473048    0.785080   -0.003566
N         2.215335    0.678076    0.007692
C         2.707506   -0.522105    0.000947
N         1.728380   -1.494656   -0.003783
N        -2.959422   -1.004748   -0.057787
O        -0.196454    2.670192   -0.003117
H         3.757125   -0.772942   -0.000810
H         1.852656   -2.494379   -0.010515
H        -3.683605   -0.425207    0.334522
H        -3.067259   -1.995709    0.091366
H        -2.266866    1.407422   -0.071876
