12
0 1
C        -0.000000    1.059637   -0.000000
C         1.243255    0.316385    0.000000
C         1.257910   -1.037807    0.000000
C         0.050800   -1.795406    0.000000
C        -1.120510   -1.120524    0.000000
N        -1.134194    0.240699   -0.000000
H         2.150846    0.903997    0.000000
O        -0.121179    2.272182   -0.000000
H         2.207234   -1.561390    0.000000
H         0.061040   -2.875014    0.000000
H        -2.087307   -1.605905   -0.000000
H        -2.011755    0.742253   -0.000000
