17
0 1
S         1.943169    0.272108   -0.145893
C         0.659397    0.625378    1.091073
C        -0.749055    0.841585    0.526248
H         0.996884    1.538754    1.582725
H         0.634585   -0.172541    1.832368
N        -0.825210    1.731136   -0.628669
C        -1.419613   -0.502382    0.194681
H        -1.363403    1.258291    1.330030
O        -1.372924   -1.448237    0.930579
O        -2.069542   -0.507130   -0.964308
C         1.566484   -1.444212   -0.607080
H        -1.930471    0.392117   -1.338924
H         0.057561    1.732030   -1.134173
H        -1.059635    2.681375   -0.375818
H         2.424027   -1.798990   -1.177153
H         0.675194   -1.521972   -1.226365
H         1.447491   -2.060030    0.282586
