11
0 1
C         1.212368    0.128353    0.049227
C         2.203547   -0.530409   -0.073518
C         0.001121    0.941794    0.196925
O        -1.129227    0.394968   -0.438801
C        -1.570190   -0.816657    0.135795
H        -0.197363    1.096798    1.266703
H         0.163426    1.920048   -0.257262
H        -2.465440   -1.115305   -0.406280
H        -0.812798   -1.602066    0.044908
H        -1.818706   -0.681546    1.196388
H         3.083623   -1.116158   -0.184634
