45
1 1
C         0.111235   -0.133347   -0.121167
C         0.373048    1.402797   -0.267036
C         1.093527    1.924380    0.985417
N         2.430048    1.354210    1.109655
H         0.522763    1.638450    1.870163
H         1.092313    3.019602    0.960126
C         1.285940   -0.919120    0.389982
C         2.483222   -1.207848   -0.481457
N         3.560700   -1.766029    0.313046
H         2.720506   -0.297347   -1.032575
H         2.158365   -1.951944   -1.215756
N         1.272723   -1.517161    1.525310
C         0.225658   -1.527096    2.541667
N         1.241475    1.617227   -1.431027
C         1.689298    2.982701   -1.707090
H         2.344885    3.346789   -0.914467
H         0.881750    3.711332   -1.836207
H        -0.691033   -1.929155    2.114088
H         4.193500   -1.047106    0.642049
H         4.093266   -2.465677   -0.185352
C        -0.409927   -0.772799   -1.417816
H        -0.677536   -0.243999    0.618846
C        -1.035944   -2.120649   -1.170339
H         0.362055   -0.883658   -2.180407
H        -1.198756   -0.154445   -1.845130
O        -1.439555   -2.686961   -2.305039
O        -1.161075   -2.632229   -0.087001
C        -0.972172    2.159354   -0.420664
C        -2.020340    1.996189    0.680344
H        -1.430735    1.895001   -1.375354
H        -0.726339    3.219149   -0.490928
C        -2.924505    0.802456    0.508508
H        -2.688756    2.862788    0.671482
H        -1.598285    1.977769    1.685897
O        -3.538450    0.475165    1.652006
O        -3.105863    0.209349   -0.522597
H        -4.158096   -0.247356    1.469489
H        -1.870980   -3.529844   -2.099156
H         0.783340    1.261425   -2.260788
H         0.057936   -0.523485    2.931027
H         0.555572   -2.166445    3.356332
H         2.275527    2.967717   -2.625355
H         2.834850    1.576849    2.011670
H         3.045206    1.728488    0.396435
H         2.149356   -2.027318    1.693934
