9
-1 1
C        -1.284462   -0.484111   -0.000009
C         0.133612    0.110326   -0.000007
C         1.186369   -0.780983   -0.000047
O         0.187517    1.376814    0.000066
H        -1.823207   -0.119864   -0.880752
H        -1.295129   -1.578415   -0.000052
H        -1.823183   -0.119933    0.880777
H         1.020268   -1.852286   -0.000091
H         2.208002   -0.415403   -0.000030
