7
0 1
C         0.000000    0.000000    0.000000
C        -1.299020    0.000000    0.000000
C         1.299020    0.000000    0.000000
H        -1.858929    0.927419    0.037886
H        -1.858929   -0.927420   -0.037886
H         1.858929    0.037886   -0.927419
H         1.858929   -0.037886    0.927420
