11
0 1
C        -2.203546   -0.530409   -0.073518
C        -1.212367    0.128353    0.049227
C        -0.001121    0.941795    0.196925
O         1.129227    0.394968   -0.438800
C         1.570189   -0.816658    0.135795
H        -0.163426    1.920048   -0.257263
H         0.197363    1.096799    1.266703
H         2.465436   -1.115308   -0.406283
H         1.818710   -0.681546    1.196387
H         0.812795   -1.602065    0.044911
H        -3.083622   -1.116158   -0.184634
